FoamFile
{
    version     2.0;
    format      ascii;
    class       dictionary;
    object      reactions;
}

elements
(
C
H
N
O
Ar
He
Ne
);


species
(
    C5H82OOH4-5
    C5H92O2-4
    C5H91O2-3
    C5H91O2-4
    C5H91O2-5
    C5H81OOH3-4
    C5H81OOH3-5
    C5H81OOH4-3
    C5H81OOH4-5
    C5H81OOH5-4
    C5H81OOH5-3
    C5H92O2-1
    C5H81OOH3-4O2
    C5H81OOH3-5O2
    C5H82OOH4-5O2
    NC5D1KET45
    NC5D1KET35
    NC5D2KET45
    CY3C5H8O
    NC5D1KET34
    H
    H2
    O
    O2
    OH
    H2O
    N2
    HO2
    H2O2
    CO
    CO2
    CH2O
    HCO
    HO2CHO
    O2CHO
    HOCHO
    OCHO
    CH3OH
    CH2OH
    CH3O
    CH3O2H
    CH3O2
    CH4
    CH3
    CH2
    CH2(S)
    CH
    C2H6
    C2H5
    C2H4
    C2H3
    C2H2
    C2H
    CH3CHO
    CH3CO
    CH2CHO
    CH2CO
    HCCO
    CH3CO3H
    CH3CO3
    CH3CO2
    C2H5OH
    C2H5O
    PC2H4OH
    SC2H4OH
    C2H5O2H
    C2H3O1-2
    CH3COCH3
    CH3COCH2
    CH3COCH2O2
    CH3COCH2O2H
    CH3COCH2O
    C2H3CHO
    C2H3CO
    C2H5CHO
    C2H5CO
    CH3OCO
    IC3H7
    NC3H7
    C3H6
    C3H5-A
    C3H5-S
    C3H5-T
    C3H4-P
    C3H4-A
    C3H3
    C3H2
    C3H5O
    C3H6OOH1-2
    C3H6OOH1-3
    C3H6OOH2-1
    C3H6OOH1-2O2
    C3H6OOH1-3O2
    C3H6OOH2-1O2
    IC3H7O2H
    NC3H7O2
    IC3H7O
    C3KET13
    "C3H51-2,3OOH"
    C3H6OH
    HOC3H6O2
    CH3CHCO
    AC3H5OOH
    C4H8-1
    C4H8-2
    PC4H9
    C4H71-1
    C4H71-3
    C4H71-4
    C4H72-2
    C4H6
    PC4H9O2
    PC4H8OH
    C4H8OH-1O2
    C4H8OOH1-3
    C4H8OOH1-3O2
    NC4KET13
    C2H5COCH3
    C2H5COCH2
    CH2CH2COCH3
    NC3H7CHO
    NC3H7CO
    IC4H9
    TC4H9
    IC4H8
    IC4H7
    TC4H9O2
    IC4H8O2H-T
    IC4H8O
    TC4H9O
    TC4H9O2H
    IC4H7O
    IC4H8OH
    IO2C4H8OH
    IC3H7CHO
    TC3H6CHO
    IC3H7CO
    IC4H7OH
    IC4H6OH
    IC3H5CHO
    IC3H5CO
    IC3H6CO
    IC4H7OOH
    TC3H6O2CHO
    IC3H5O2HCHO
    CH2CCH2OH
    C5H11-1
    C5H10-1
    C5H10-2
    C5H81-3
    C5H91-3
    C5H91-4
    C5H92-4
    C5H10OH-2
    O2C5H10OH-2
    C6H13-1
    C6H12-1
    NC4H9CHO
    NC4H9CO
    NC3H7COCH2
    NC7H16
    C7H15-1
    C7H15-2
    C7H15-3
    C7H15-4
    C7H14-1
    C7H14-2
    C7H14-3
    C7H131-3
    C7H133-6
    C7H15O2-1
    C7H15O2-2
    C7H15O2-3
    C7H15O2-4
    C7H15O2H-3
    C7H15O-3
    C7H14OOH1-3
    C7H14OOH1-4
    C7H14OOH2-4
    C7H14OOH2-5
    C7H14OOH3-2
    C7H14OOH3-4
    C7H14OOH3-5
    C7H14OOH4-1
    C7H14OOH4-2
    C7H14OOH4-3
    C7H14OOH1-3O2
    C7H14OOH2-4O2
    C7H14OOH3-2O2
    C7H14OOH3-4O2
    C7H14OOH3-5O2
    C7H14OOH4-2O2
    C7H14OOH4-3O2
    C7H14O1-3
    C7H14O1-4
    C7H14O2-4
    C7H14O2-5
    C7H14O3-5
    NC7KET13
    NC7KET24
    NC7KET32
    NC7KET34
    NC7KET35
    NC7KET42
    NC7KET43
    C5H9OOH1-4
    C5H9O1-4
    BC5H11
    CC5H11
    AC5H10
    BC5H10
    CC5H10
    AC5H9-C
    CC5H9-B
    CH3CHCHO
    BC6H12
    CC6H12
    CC6H11-B
    IC4H7-I1
    YC7H15
    ZC7H15
    XC7H14
    YC7H14
    XC7H13-Z
    YC7H13-X2
    XC7H13O-Z
    ACC6H10
    ACC6H9-A
    ACC6H9-D
    NEOC5H11
    NEOC5H11O2
    NEOC5H10OOH
    NEOC5H10OOH-O2
    NEOC5H9Q2-N
    NEOC5KET
    NEOC5KETOX
    TC4H9CHO
    TC4H9CO
    C4H7CHO2-2
    C4H6CHO2-24
    PC7H15
    IC8H18
    AC8H17
    BC8H17
    CC8H17
    DC8H17
    IC8H16
    JC8H16
    IC8H15
    AC8H17O2
    BC8H17O2
    CC8H17O2
    DC8H17O2
    AC8H17O2H
    CC8H17O2H
    DC8H17O2H
    AC8H17O
    CC8H17O
    AC8H16OOH-A
    AC8H16OOH-B
    AC8H16OOH-C
    BC8H16OOH-C
    BC8H16OOH-A
    BC8H16OOH-D
    CC8H16OOH-B
    CC8H16OOH-A
    DC8H16OOH-C
    DC8H16OOH-B
    IC8ETERAA
    IC8ETERAB
    IC8ETERAC
    IC8ETERBD
    AC8H16OOH-BO2
    BC8H16OOH-CO2
    BC8H16OOH-AO2
    BC8H16OOH-DO2
    DC8H16OOH-BO2
    IC8KETAB
    IC8KETBA
    IC8KETBC
    IC8KETBD
    IC8KETDB
    IC3H7COC3H6-T
    TC4H9COC2H4S
    XC7H13OOH-Z
    YC7H13OOH-X2
    YC7H13O-X2
    C6H5CH3
    C6H5CH2J
    OC6H4CH3
    HOC6H4CH3
    OC6H4O
    RODC6JDO
    OXCCXCCJXO
    C6H5OH
    STYR
    CYPDONE
    HCOCJXO
    OXCCXCCXO
    C6H5CH2OJ
    C6H5CH2OH
    C6H5CHO
    C6H4OH
    C6H6
    C6H5OJ
    CJXCCXO
    C6H5
    C6H4CH3
    C6H5CJO
    O2C6H4CH3
    RODC6J(C)DO
    OCCXCCXCJC
);

reactions
{
    reaction-00000
    {
        type            irreversibleArrheniusReaction;
        reaction        "H + O2 = O + OH";
        A               3.547e+12;
        beta            -0.406;
        Ta              8353.44425608;
    }

    reaction-00001
    {
        type            irreversibleArrheniusReaction;
        reaction        "O + OH = H + O2";
        A               10270000000;
        beta            -0.015;
        Ta              -66.9281979553;
    }

    reaction-00002
    {
        type            irreversibleArrheniusReaction;
        reaction        "H2 + O = H + OH";
        A               50.8;
        beta            2.67;
        Ta              3166.25730477;
    }

    reaction-00003
    {
        type            irreversibleArrheniusReaction;
        reaction        "H + OH = H2 + O";
        A               26.37;
        beta            2.651;
        Ta              2455.71132347;
    }

    reaction-00004
    {
        type            irreversibleArrheniusReaction;
        reaction        "H2 + OH = H + H2O";
        A               216000;
        beta            1.51;
        Ta              1726.0429999;
    }

    reaction-00005
    {
        type            irreversibleArrheniusReaction;
        reaction        "H + H2O = H2 + OH";
        A               2290000;
        beta            1.404;
        Ta              9218.9818537;
    }

    reaction-00006
    {
        type            irreversibleArrheniusReaction;
        reaction        "H2O + O = 2OH";
        A               2970;
        beta            2.02;
        Ta              6743.14174888;
    }

    reaction-00007
    {
        type            irreversibleArrheniusReaction;
        reaction        "2OH = H2O + O";
        A               145.4;
        beta            2.107;
        Ta              -1461.34952528;
    }

    reaction-00008
    {
        type            irreversiblethirdBodyArrheniusReaction;
        reaction        "H2 = 2H";
        A               4.577e+16;
        beta            -1.4;
        Ta              52536.1192973;
        defaultEfficiency 1;
        coeffs
        312
        (
        (C5H82OOH4-5 1)
        (C5H92O2-4 1)
        (C5H91O2-3 1)
        (C5H91O2-4 1)
        (C5H91O2-5 1)
        (C5H81OOH3-4 1)
        (C5H81OOH3-5 1)
        (C5H81OOH4-3 1)
        (C5H81OOH4-5 1)
        (C5H81OOH5-4 1)
        (C5H81OOH5-3 1)
        (C5H92O2-1 1)
        (C5H81OOH3-4O2 1)
        (C5H81OOH3-5O2 1)
        (C5H82OOH4-5O2 1)
        (NC5D1KET45 1)
        (NC5D1KET35 1)
        (NC5D2KET45 1)
        (CY3C5H8O 1)
        (NC5D1KET34 1)
        (H 1)
        (H2 2.5)
        (O 1)
        (O2 1)
        (OH 1)
        (H2O 12)
        (N2 1)
        (HO2 1)
        (H2O2 1)
        (CO 1.9)
        (CO2 3.8)
        (CH2O 1)
        (HCO 1)
        (HO2CHO 1)
        (O2CHO 1)
        (HOCHO 1)
        (OCHO 1)
        (CH3OH 1)
        (CH2OH 1)
        (CH3O 1)
        (CH3O2H 1)
        (CH3O2 1)
        (CH4 1)
        (CH3 1)
        (CH2 1)
        (CH2(S) 1)
        (CH 1)
        (C2H6 1)
        (C2H5 1)
        (C2H4 1)
        (C2H3 1)
        (C2H2 1)
        (C2H 1)
        (CH3CHO 1)
        (CH3CO 1)
        (CH2CHO 1)
        (CH2CO 1)
        (HCCO 1)
        (CH3CO3H 1)
        (CH3CO3 1)
        (CH3CO2 1)
        (C2H5OH 1)
        (C2H5O 1)
        (PC2H4OH 1)
        (SC2H4OH 1)
        (C2H5O2H 1)
        (C2H3O1-2 1)
        (CH3COCH3 1)
        (CH3COCH2 1)
        (CH3COCH2O2 1)
        (CH3COCH2O2H 1)
        (CH3COCH2O 1)
        (C2H3CHO 1)
        (C2H3CO 1)
        (C2H5CHO 1)
        (C2H5CO 1)
        (CH3OCO 1)
        (IC3H7 1)
        (NC3H7 1)
        (C3H6 1)
        (C3H5-A 1)
        (C3H5-S 1)
        (C3H5-T 1)
        (C3H4-P 1)
        (C3H4-A 1)
        (C3H3 1)
        (C3H2 1)
        (C3H5O 1)
        (C3H6OOH1-2 1)
        (C3H6OOH1-3 1)
        (C3H6OOH2-1 1)
        (C3H6OOH1-2O2 1)
        (C3H6OOH1-3O2 1)
        (C3H6OOH2-1O2 1)
        (IC3H7O2H 1)
        (NC3H7O2 1)
        (IC3H7O 1)
        (C3KET13 1)
        ("C3H51-2,3OOH" 1)
        (C3H6OH 1)
        (HOC3H6O2 1)
        (CH3CHCO 1)
        (AC3H5OOH 1)
        (C4H8-1 1)
        (C4H8-2 1)
        (PC4H9 1)
        (C4H71-1 1)
        (C4H71-3 1)
        (C4H71-4 1)
        (C4H72-2 1)
        (C4H6 1)
        (PC4H9O2 1)
        (PC4H8OH 1)
        (C4H8OH-1O2 1)
        (C4H8OOH1-3 1)
        (C4H8OOH1-3O2 1)
        (NC4KET13 1)
        (C2H5COCH3 1)
        (C2H5COCH2 1)
        (CH2CH2COCH3 1)
        (NC3H7CHO 1)
        (NC3H7CO 1)
        (IC4H9 1)
        (TC4H9 1)
        (IC4H8 1)
        (IC4H7 1)
        (TC4H9O2 1)
        (IC4H8O2H-T 1)
        (IC4H8O 1)
        (TC4H9O 1)
        (TC4H9O2H 1)
        (IC4H7O 1)
        (IC4H8OH 1)
        (IO2C4H8OH 1)
        (IC3H7CHO 1)
        (TC3H6CHO 1)
        (IC3H7CO 1)
        (IC4H7OH 1)
        (IC4H6OH 1)
        (IC3H5CHO 1)
        (IC3H5CO 1)
        (IC3H6CO 1)
        (IC4H7OOH 1)
        (TC3H6O2CHO 1)
        (IC3H5O2HCHO 1)
        (CH2CCH2OH 1)
        (C5H11-1 1)
        (C5H10-1 1)
        (C5H10-2 1)
        (C5H81-3 1)
        (C5H91-3 1)
        (C5H91-4 1)
        (C5H92-4 1)
        (C5H10OH-2 1)
        (O2C5H10OH-2 1)
        (C6H13-1 1)
        (C6H12-1 1)
        (NC4H9CHO 1)
        (NC4H9CO 1)
        (NC3H7COCH2 1)
        (NC7H16 1)
        (C7H15-1 1)
        (C7H15-2 1)
        (C7H15-3 1)
        (C7H15-4 1)
        (C7H14-1 1)
        (C7H14-2 1)
        (C7H14-3 1)
        (C7H131-3 1)
        (C7H133-6 1)
        (C7H15O2-1 1)
        (C7H15O2-2 1)
        (C7H15O2-3 1)
        (C7H15O2-4 1)
        (C7H15O2H-3 1)
        (C7H15O-3 1)
        (C7H14OOH1-3 1)
        (C7H14OOH1-4 1)
        (C7H14OOH2-4 1)
        (C7H14OOH2-5 1)
        (C7H14OOH3-2 1)
        (C7H14OOH3-4 1)
        (C7H14OOH3-5 1)
        (C7H14OOH4-1 1)
        (C7H14OOH4-2 1)
        (C7H14OOH4-3 1)
        (C7H14OOH1-3O2 1)
        (C7H14OOH2-4O2 1)
        (C7H14OOH3-2O2 1)
        (C7H14OOH3-4O2 1)
        (C7H14OOH3-5O2 1)
        (C7H14OOH4-2O2 1)
        (C7H14OOH4-3O2 1)
        (C7H14O1-3 1)
        (C7H14O1-4 1)
        (C7H14O2-4 1)
        (C7H14O2-5 1)
        (C7H14O3-5 1)
        (NC7KET13 1)
        (NC7KET24 1)
        (NC7KET32 1)
        (NC7KET34 1)
        (NC7KET35 1)
        (NC7KET42 1)
        (NC7KET43 1)
        (C5H9OOH1-4 1)
        (C5H9O1-4 1)
        (BC5H11 1)
        (CC5H11 1)
        (AC5H10 1)
        (BC5H10 1)
        (CC5H10 1)
        (AC5H9-C 1)
        (CC5H9-B 1)
        (CH3CHCHO 1)
        (BC6H12 1)
        (CC6H12 1)
        (CC6H11-B 1)
        (IC4H7-I1 1)
        (YC7H15 1)
        (ZC7H15 1)
        (XC7H14 1)
        (YC7H14 1)
        (XC7H13-Z 1)
        (YC7H13-X2 1)
        (XC7H13O-Z 1)
        (ACC6H10 1)
        (ACC6H9-A 1)
        (ACC6H9-D 1)
        (NEOC5H11 1)
        (NEOC5H11O2 1)
        (NEOC5H10OOH 1)
        (NEOC5H10OOH-O2 1)
        (NEOC5H9Q2-N 1)
        (NEOC5KET 1)
        (NEOC5KETOX 1)
        (TC4H9CHO 1)
        (TC4H9CO 1)
        (C4H7CHO2-2 1)
        (C4H6CHO2-24 1)
        (PC7H15 1)
        (IC8H18 1)
        (AC8H17 1)
        (BC8H17 1)
        (CC8H17 1)
        (DC8H17 1)
        (IC8H16 1)
        (JC8H16 1)
        (IC8H15 1)
        (AC8H17O2 1)
        (BC8H17O2 1)
        (CC8H17O2 1)
        (DC8H17O2 1)
        (AC8H17O2H 1)
        (CC8H17O2H 1)
        (DC8H17O2H 1)
        (AC8H17O 1)
        (CC8H17O 1)
        (AC8H16OOH-A 1)
        (AC8H16OOH-B 1)
        (AC8H16OOH-C 1)
        (BC8H16OOH-C 1)
        (BC8H16OOH-A 1)
        (BC8H16OOH-D 1)
        (CC8H16OOH-B 1)
        (CC8H16OOH-A 1)
        (DC8H16OOH-C 1)
        (DC8H16OOH-B 1)
        (IC8ETERAA 1)
        (IC8ETERAB 1)
        (IC8ETERAC 1)
        (IC8ETERBD 1)
        (AC8H16OOH-BO2 1)
        (BC8H16OOH-CO2 1)
        (BC8H16OOH-AO2 1)
        (BC8H16OOH-DO2 1)
        (DC8H16OOH-BO2 1)
        (IC8KETAB 1)
        (IC8KETBA 1)
        (IC8KETBC 1)
        (IC8KETBD 1)
        (IC8KETDB 1)
        (IC3H7COC3H6-T 1)
        (TC4H9COC2H4S 1)
        (XC7H13OOH-Z 1)
        (YC7H13OOH-X2 1)
        (YC7H13O-X2 1)
        (C6H5CH3 1)
        (C6H5CH2J 1)
        (OC6H4CH3 1)
        (HOC6H4CH3 1)
        (OC6H4O 1)
        (RODC6JDO 1)
        (OXCCXCCJXO 1)
        (C6H5OH 1)
        (STYR 1)
        (CYPDONE 1)
        (HCOCJXO 1)
        (OXCCXCCXO 1)
        (C6H5CH2OJ 1)
        (C6H5CH2OH 1)
        (C6H5CHO 1)
        (C6H4OH 1)
        (C6H6 1)
        (C6H5OJ 1)
        (CJXCCXO 1)
        (C6H5 1)
        (C6H4CH3 1)
        (C6H5CJO 1)
        (O2C6H4CH3 1)
        (RODC6J(C)DO 1)
        (OCCXCCXCJC 1)
        )
        ;
    }

    reaction-00009
    {
        type            irreversiblethirdBodyArrheniusReaction;
        reaction        "2H = H2";
        A               1.145e+14;
        beta            -1.676;
        Ta              412.640017469;
        defaultEfficiency 1;
        coeffs
        312
        (
        (C5H82OOH4-5 1)
        (C5H92O2-4 1)
        (C5H91O2-3 1)
        (C5H91O2-4 1)
        (C5H91O2-5 1)
        (C5H81OOH3-4 1)
        (C5H81OOH3-5 1)
        (C5H81OOH4-3 1)
        (C5H81OOH4-5 1)
        (C5H81OOH5-4 1)
        (C5H81OOH5-3 1)
        (C5H92O2-1 1)
        (C5H81OOH3-4O2 1)
        (C5H81OOH3-5O2 1)
        (C5H82OOH4-5O2 1)
        (NC5D1KET45 1)
        (NC5D1KET35 1)
        (NC5D2KET45 1)
        (CY3C5H8O 1)
        (NC5D1KET34 1)
        (H 1)
        (H2 2.5)
        (O 1)
        (O2 1)
        (OH 1)
        (H2O 12)
        (N2 1)
        (HO2 1)
        (H2O2 1)
        (CO 1.9)
        (CO2 3.8)
        (CH2O 1)
        (HCO 1)
        (HO2CHO 1)
        (O2CHO 1)
        (HOCHO 1)
        (OCHO 1)
        (CH3OH 1)
        (CH2OH 1)
        (CH3O 1)
        (CH3O2H 1)
        (CH3O2 1)
        (CH4 1)
        (CH3 1)
        (CH2 1)
        (CH2(S) 1)
        (CH 1)
        (C2H6 1)
        (C2H5 1)
        (C2H4 1)
        (C2H3 1)
        (C2H2 1)
        (C2H 1)
        (CH3CHO 1)
        (CH3CO 1)
        (CH2CHO 1)
        (CH2CO 1)
        (HCCO 1)
        (CH3CO3H 1)
        (CH3CO3 1)
        (CH3CO2 1)
        (C2H5OH 1)
        (C2H5O 1)
        (PC2H4OH 1)
        (SC2H4OH 1)
        (C2H5O2H 1)
        (C2H3O1-2 1)
        (CH3COCH3 1)
        (CH3COCH2 1)
        (CH3COCH2O2 1)
        (CH3COCH2O2H 1)
        (CH3COCH2O 1)
        (C2H3CHO 1)
        (C2H3CO 1)
        (C2H5CHO 1)
        (C2H5CO 1)
        (CH3OCO 1)
        (IC3H7 1)
        (NC3H7 1)
        (C3H6 1)
        (C3H5-A 1)
        (C3H5-S 1)
        (C3H5-T 1)
        (C3H4-P 1)
        (C3H4-A 1)
        (C3H3 1)
        (C3H2 1)
        (C3H5O 1)
        (C3H6OOH1-2 1)
        (C3H6OOH1-3 1)
        (C3H6OOH2-1 1)
        (C3H6OOH1-2O2 1)
        (C3H6OOH1-3O2 1)
        (C3H6OOH2-1O2 1)
        (IC3H7O2H 1)
        (NC3H7O2 1)
        (IC3H7O 1)
        (C3KET13 1)
        ("C3H51-2,3OOH" 1)
        (C3H6OH 1)
        (HOC3H6O2 1)
        (CH3CHCO 1)
        (AC3H5OOH 1)
        (C4H8-1 1)
        (C4H8-2 1)
        (PC4H9 1)
        (C4H71-1 1)
        (C4H71-3 1)
        (C4H71-4 1)
        (C4H72-2 1)
        (C4H6 1)
        (PC4H9O2 1)
        (PC4H8OH 1)
        (C4H8OH-1O2 1)
        (C4H8OOH1-3 1)
        (C4H8OOH1-3O2 1)
        (NC4KET13 1)
        (C2H5COCH3 1)
        (C2H5COCH2 1)
        (CH2CH2COCH3 1)
        (NC3H7CHO 1)
        (NC3H7CO 1)
        (IC4H9 1)
        (TC4H9 1)
        (IC4H8 1)
        (IC4H7 1)
        (TC4H9O2 1)
        (IC4H8O2H-T 1)
        (IC4H8O 1)
        (TC4H9O 1)
        (TC4H9O2H 1)
        (IC4H7O 1)
        (IC4H8OH 1)
        (IO2C4H8OH 1)
        (IC3H7CHO 1)
        (TC3H6CHO 1)
        (IC3H7CO 1)
        (IC4H7OH 1)
        (IC4H6OH 1)
        (IC3H5CHO 1)
        (IC3H5CO 1)
        (IC3H6CO 1)
        (IC4H7OOH 1)
        (TC3H6O2CHO 1)
        (IC3H5O2HCHO 1)
        (CH2CCH2OH 1)
        (C5H11-1 1)
        (C5H10-1 1)
        (C5H10-2 1)
        (C5H81-3 1)
        (C5H91-3 1)
        (C5H91-4 1)
        (C5H92-4 1)
        (C5H10OH-2 1)
        (O2C5H10OH-2 1)
        (C6H13-1 1)
        (C6H12-1 1)
        (NC4H9CHO 1)
        (NC4H9CO 1)
        (NC3H7COCH2 1)
        (NC7H16 1)
        (C7H15-1 1)
        (C7H15-2 1)
        (C7H15-3 1)
        (C7H15-4 1)
        (C7H14-1 1)
        (C7H14-2 1)
        (C7H14-3 1)
        (C7H131-3 1)
        (C7H133-6 1)
        (C7H15O2-1 1)
        (C7H15O2-2 1)
        (C7H15O2-3 1)
        (C7H15O2-4 1)
        (C7H15O2H-3 1)
        (C7H15O-3 1)
        (C7H14OOH1-3 1)
        (C7H14OOH1-4 1)
        (C7H14OOH2-4 1)
        (C7H14OOH2-5 1)
        (C7H14OOH3-2 1)
        (C7H14OOH3-4 1)
        (C7H14OOH3-5 1)
        (C7H14OOH4-1 1)
        (C7H14OOH4-2 1)
        (C7H14OOH4-3 1)
        (C7H14OOH1-3O2 1)
        (C7H14OOH2-4O2 1)
        (C7H14OOH3-2O2 1)
        (C7H14OOH3-4O2 1)
        (C7H14OOH3-5O2 1)
        (C7H14OOH4-2O2 1)
        (C7H14OOH4-3O2 1)
        (C7H14O1-3 1)
        (C7H14O1-4 1)
        (C7H14O2-4 1)
        (C7H14O2-5 1)
        (C7H14O3-5 1)
        (NC7KET13 1)
        (NC7KET24 1)
        (NC7KET32 1)
        (NC7KET34 1)
        (NC7KET35 1)
        (NC7KET42 1)
        (NC7KET43 1)
        (C5H9OOH1-4 1)
        (C5H9O1-4 1)
        (BC5H11 1)
        (CC5H11 1)
        (AC5H10 1)
        (BC5H10 1)
        (CC5H10 1)
        (AC5H9-C 1)
        (CC5H9-B 1)
        (CH3CHCHO 1)
        (BC6H12 1)
        (CC6H12 1)
        (CC6H11-B 1)
        (IC4H7-I1 1)
        (YC7H15 1)
        (ZC7H15 1)
        (XC7H14 1)
        (YC7H14 1)
        (XC7H13-Z 1)
        (YC7H13-X2 1)
        (XC7H13O-Z 1)
        (ACC6H10 1)
        (ACC6H9-A 1)
        (ACC6H9-D 1)
        (NEOC5H11 1)
        (NEOC5H11O2 1)
        (NEOC5H10OOH 1)
        (NEOC5H10OOH-O2 1)
        (NEOC5H9Q2-N 1)
        (NEOC5KET 1)
        (NEOC5KETOX 1)
        (TC4H9CHO 1)
        (TC4H9CO 1)
        (C4H7CHO2-2 1)
        (C4H6CHO2-24 1)
        (PC7H15 1)
        (IC8H18 1)
        (AC8H17 1)
        (BC8H17 1)
        (CC8H17 1)
        (DC8H17 1)
        (IC8H16 1)
        (JC8H16 1)
        (IC8H15 1)
        (AC8H17O2 1)
        (BC8H17O2 1)
        (CC8H17O2 1)
        (DC8H17O2 1)
        (AC8H17O2H 1)
        (CC8H17O2H 1)
        (DC8H17O2H 1)
        (AC8H17O 1)
        (CC8H17O 1)
        (AC8H16OOH-A 1)
        (AC8H16OOH-B 1)
        (AC8H16OOH-C 1)
        (BC8H16OOH-C 1)
        (BC8H16OOH-A 1)
        (BC8H16OOH-D 1)
        (CC8H16OOH-B 1)
        (CC8H16OOH-A 1)
        (DC8H16OOH-C 1)
        (DC8H16OOH-B 1)
        (IC8ETERAA 1)
        (IC8ETERAB 1)
        (IC8ETERAC 1)
        (IC8ETERBD 1)
        (AC8H16OOH-BO2 1)
        (BC8H16OOH-CO2 1)
        (BC8H16OOH-AO2 1)
        (BC8H16OOH-DO2 1)
        (DC8H16OOH-BO2 1)
        (IC8KETAB 1)
        (IC8KETBA 1)
        (IC8KETBC 1)
        (IC8KETBD 1)
        (IC8KETDB 1)
        (IC3H7COC3H6-T 1)
        (TC4H9COC2H4S 1)
        (XC7H13OOH-Z 1)
        (YC7H13OOH-X2 1)
        (YC7H13O-X2 1)
        (C6H5CH3 1)
        (C6H5CH2J 1)
        (OC6H4CH3 1)
        (HOC6H4CH3 1)
        (OC6H4O 1)
        (RODC6JDO 1)
        (OXCCXCCJXO 1)
        (C6H5OH 1)
        (STYR 1)
        (CYPDONE 1)
        (HCOCJXO 1)
        (OXCCXCCXO 1)
        (C6H5CH2OJ 1)
        (C6H5CH2OH 1)
        (C6H5CHO 1)
        (C6H4OH 1)
        (C6H6 1)
        (C6H5OJ 1)
        (CJXCCXO 1)
        (C6H5 1)
        (C6H4CH3 1)
        (C6H5CJO 1)
        (O2C6H4CH3 1)
        (RODC6J(C)DO 1)
        (OCCXCCXCJC 1)
        )
        ;
    }

    reaction-00010
    {
        type            irreversiblethirdBodyArrheniusReaction;
        reaction        "O2 = 2O";
        A               4.42e+14;
        beta            -0.634;
        Ta              59832.802533;
        defaultEfficiency 1;
        coeffs
        312
        (
        (C5H82OOH4-5 1)
        (C5H92O2-4 1)
        (C5H91O2-3 1)
        (C5H91O2-4 1)
        (C5H91O2-5 1)
        (C5H81OOH3-4 1)
        (C5H81OOH3-5 1)
        (C5H81OOH4-3 1)
        (C5H81OOH4-5 1)
        (C5H81OOH5-4 1)
        (C5H81OOH5-3 1)
        (C5H92O2-1 1)
        (C5H81OOH3-4O2 1)
        (C5H81OOH3-5O2 1)
        (C5H82OOH4-5O2 1)
        (NC5D1KET45 1)
        (NC5D1KET35 1)
        (NC5D2KET45 1)
        (CY3C5H8O 1)
        (NC5D1KET34 1)
        (H 1)
        (H2 2.5)
        (O 1)
        (O2 1)
        (OH 1)
        (H2O 12)
        (N2 1)
        (HO2 1)
        (H2O2 1)
        (CO 1.9)
        (CO2 3.8)
        (CH2O 1)
        (HCO 1)
        (HO2CHO 1)
        (O2CHO 1)
        (HOCHO 1)
        (OCHO 1)
        (CH3OH 1)
        (CH2OH 1)
        (CH3O 1)
        (CH3O2H 1)
        (CH3O2 1)
        (CH4 2)
        (CH3 1)
        (CH2 1)
        (CH2(S) 1)
        (CH 1)
        (C2H6 3)
        (C2H5 1)
        (C2H4 1)
        (C2H3 1)
        (C2H2 1)
        (C2H 1)
        (CH3CHO 1)
        (CH3CO 1)
        (CH2CHO 1)
        (CH2CO 1)
        (HCCO 1)
        (CH3CO3H 1)
        (CH3CO3 1)
        (CH3CO2 1)
        (C2H5OH 1)
        (C2H5O 1)
        (PC2H4OH 1)
        (SC2H4OH 1)
        (C2H5O2H 1)
        (C2H3O1-2 1)
        (CH3COCH3 1)
        (CH3COCH2 1)
        (CH3COCH2O2 1)
        (CH3COCH2O2H 1)
        (CH3COCH2O 1)
        (C2H3CHO 1)
        (C2H3CO 1)
        (C2H5CHO 1)
        (C2H5CO 1)
        (CH3OCO 1)
        (IC3H7 1)
        (NC3H7 1)
        (C3H6 1)
        (C3H5-A 1)
        (C3H5-S 1)
        (C3H5-T 1)
        (C3H4-P 1)
        (C3H4-A 1)
        (C3H3 1)
        (C3H2 1)
        (C3H5O 1)
        (C3H6OOH1-2 1)
        (C3H6OOH1-3 1)
        (C3H6OOH2-1 1)
        (C3H6OOH1-2O2 1)
        (C3H6OOH1-3O2 1)
        (C3H6OOH2-1O2 1)
        (IC3H7O2H 1)
        (NC3H7O2 1)
        (IC3H7O 1)
        (C3KET13 1)
        ("C3H51-2,3OOH" 1)
        (C3H6OH 1)
        (HOC3H6O2 1)
        (CH3CHCO 1)
        (AC3H5OOH 1)
        (C4H8-1 1)
        (C4H8-2 1)
        (PC4H9 1)
        (C4H71-1 1)
        (C4H71-3 1)
        (C4H71-4 1)
        (C4H72-2 1)
        (C4H6 1)
        (PC4H9O2 1)
        (PC4H8OH 1)
        (C4H8OH-1O2 1)
        (C4H8OOH1-3 1)
        (C4H8OOH1-3O2 1)
        (NC4KET13 1)
        (C2H5COCH3 1)
        (C2H5COCH2 1)
        (CH2CH2COCH3 1)
        (NC3H7CHO 1)
        (NC3H7CO 1)
        (IC4H9 1)
        (TC4H9 1)
        (IC4H8 1)
        (IC4H7 1)
        (TC4H9O2 1)
        (IC4H8O2H-T 1)
        (IC4H8O 1)
        (TC4H9O 1)
        (TC4H9O2H 1)
        (IC4H7O 1)
        (IC4H8OH 1)
        (IO2C4H8OH 1)
        (IC3H7CHO 1)
        (TC3H6CHO 1)
        (IC3H7CO 1)
        (IC4H7OH 1)
        (IC4H6OH 1)
        (IC3H5CHO 1)
        (IC3H5CO 1)
        (IC3H6CO 1)
        (IC4H7OOH 1)
        (TC3H6O2CHO 1)
        (IC3H5O2HCHO 1)
        (CH2CCH2OH 1)
        (C5H11-1 1)
        (C5H10-1 1)
        (C5H10-2 1)
        (C5H81-3 1)
        (C5H91-3 1)
        (C5H91-4 1)
        (C5H92-4 1)
        (C5H10OH-2 1)
        (O2C5H10OH-2 1)
        (C6H13-1 1)
        (C6H12-1 1)
        (NC4H9CHO 1)
        (NC4H9CO 1)
        (NC3H7COCH2 1)
        (NC7H16 1)
        (C7H15-1 1)
        (C7H15-2 1)
        (C7H15-3 1)
        (C7H15-4 1)
        (C7H14-1 1)
        (C7H14-2 1)
        (C7H14-3 1)
        (C7H131-3 1)
        (C7H133-6 1)
        (C7H15O2-1 1)
        (C7H15O2-2 1)
        (C7H15O2-3 1)
        (C7H15O2-4 1)
        (C7H15O2H-3 1)
        (C7H15O-3 1)
        (C7H14OOH1-3 1)
        (C7H14OOH1-4 1)
        (C7H14OOH2-4 1)
        (C7H14OOH2-5 1)
        (C7H14OOH3-2 1)
        (C7H14OOH3-4 1)
        (C7H14OOH3-5 1)
        (C7H14OOH4-1 1)
        (C7H14OOH4-2 1)
        (C7H14OOH4-3 1)
        (C7H14OOH1-3O2 1)
        (C7H14OOH2-4O2 1)
        (C7H14OOH3-2O2 1)
        (C7H14OOH3-4O2 1)
        (C7H14OOH3-5O2 1)
        (C7H14OOH4-2O2 1)
        (C7H14OOH4-3O2 1)
        (C7H14O1-3 1)
        (C7H14O1-4 1)
        (C7H14O2-4 1)
        (C7H14O2-5 1)
        (C7H14O3-5 1)
        (NC7KET13 1)
        (NC7KET24 1)
        (NC7KET32 1)
        (NC7KET34 1)
        (NC7KET35 1)
        (NC7KET42 1)
        (NC7KET43 1)
        (C5H9OOH1-4 1)
        (C5H9O1-4 1)
        (BC5H11 1)
        (CC5H11 1)
        (AC5H10 1)
        (BC5H10 1)
        (CC5H10 1)
        (AC5H9-C 1)
        (CC5H9-B 1)
        (CH3CHCHO 1)
        (BC6H12 1)
        (CC6H12 1)
        (CC6H11-B 1)
        (IC4H7-I1 1)
        (YC7H15 1)
        (ZC7H15 1)
        (XC7H14 1)
        (YC7H14 1)
        (XC7H13-Z 1)
        (YC7H13-X2 1)
        (XC7H13O-Z 1)
        (ACC6H10 1)
        (ACC6H9-A 1)
        (ACC6H9-D 1)
        (NEOC5H11 1)
        (NEOC5H11O2 1)
        (NEOC5H10OOH 1)
        (NEOC5H10OOH-O2 1)
        (NEOC5H9Q2-N 1)
        (NEOC5KET 1)
        (NEOC5KETOX 1)
        (TC4H9CHO 1)
        (TC4H9CO 1)
        (C4H7CHO2-2 1)
        (C4H6CHO2-24 1)
        (PC7H15 1)
        (IC8H18 1)
        (AC8H17 1)
        (BC8H17 1)
        (CC8H17 1)
        (DC8H17 1)
        (IC8H16 1)
        (JC8H16 1)
        (IC8H15 1)
        (AC8H17O2 1)
        (BC8H17O2 1)
        (CC8H17O2 1)
        (DC8H17O2 1)
        (AC8H17O2H 1)
        (CC8H17O2H 1)
        (DC8H17O2H 1)
        (AC8H17O 1)
        (CC8H17O 1)
        (AC8H16OOH-A 1)
        (AC8H16OOH-B 1)
        (AC8H16OOH-C 1)
        (BC8H16OOH-C 1)
        (BC8H16OOH-A 1)
        (BC8H16OOH-D 1)
        (CC8H16OOH-B 1)
        (CC8H16OOH-A 1)
        (DC8H16OOH-C 1)
        (DC8H16OOH-B 1)
        (IC8ETERAA 1)
        (IC8ETERAB 1)
        (IC8ETERAC 1)
        (IC8ETERBD 1)
        (AC8H16OOH-BO2 1)
        (BC8H16OOH-CO2 1)
        (BC8H16OOH-AO2 1)
        (BC8H16OOH-DO2 1)
        (DC8H16OOH-BO2 1)
        (IC8KETAB 1)
        (IC8KETBA 1)
        (IC8KETBC 1)
        (IC8KETBD 1)
        (IC8KETDB 1)
        (IC3H7COC3H6-T 1)
        (TC4H9COC2H4S 1)
        (XC7H13OOH-Z 1)
        (YC7H13OOH-X2 1)
        (YC7H13O-X2 1)
        (C6H5CH3 1)
        (C6H5CH2J 1)
        (OC6H4CH3 1)
        (HOC6H4CH3 1)
        (OC6H4O 1)
        (RODC6JDO 1)
        (OXCCXCCJXO 1)
        (C6H5OH 1)
        (STYR 1)
        (CYPDONE 1)
        (HCOCJXO 1)
        (OXCCXCCXO 1)
        (C6H5CH2OJ 1)
        (C6H5CH2OH 1)
        (C6H5CHO 1)
        (C6H4OH 1)
        (C6H6 1)
        (C6H5OJ 1)
        (CJXCCXO 1)
        (C6H5 1)
        (C6H4CH3 1)
        (C6H5CJO 1)
        (O2C6H4CH3 1)
        (RODC6J(C)DO 1)
        (OCCXCCXCJC 1)
        )
        ;
    }

    reaction-00011
    {
        type            irreversiblethirdBodyArrheniusReaction;
        reaction        "2O = O2";
        A               6165000000;
        beta            -0.5;
        Ta              0;
        defaultEfficiency 1;
        coeffs
        312
        (
        (C5H82OOH4-5 1)
        (C5H92O2-4 1)
        (C5H91O2-3 1)
        (C5H91O2-4 1)
        (C5H91O2-5 1)
        (C5H81OOH3-4 1)
        (C5H81OOH3-5 1)
        (C5H81OOH4-3 1)
        (C5H81OOH4-5 1)
        (C5H81OOH5-4 1)
        (C5H81OOH5-3 1)
        (C5H92O2-1 1)
        (C5H81OOH3-4O2 1)
        (C5H81OOH3-5O2 1)
        (C5H82OOH4-5O2 1)
        (NC5D1KET45 1)
        (NC5D1KET35 1)
        (NC5D2KET45 1)
        (CY3C5H8O 1)
        (NC5D1KET34 1)
        (H 1)
        (H2 2.5)
        (O 1)
        (O2 1)
        (OH 1)
        (H2O 12)
        (N2 1)
        (HO2 1)
        (H2O2 1)
        (CO 1.9)
        (CO2 3.8)
        (CH2O 1)
        (HCO 1)
        (HO2CHO 1)
        (O2CHO 1)
        (HOCHO 1)
        (OCHO 1)
        (CH3OH 1)
        (CH2OH 1)
        (CH3O 1)
        (CH3O2H 1)
        (CH3O2 1)
        (CH4 2)
        (CH3 1)
        (CH2 1)
        (CH2(S) 1)
        (CH 1)
        (C2H6 3)
        (C2H5 1)
        (C2H4 1)
        (C2H3 1)
        (C2H2 1)
        (C2H 1)
        (CH3CHO 1)
        (CH3CO 1)
        (CH2CHO 1)
        (CH2CO 1)
        (HCCO 1)
        (CH3CO3H 1)
        (CH3CO3 1)
        (CH3CO2 1)
        (C2H5OH 1)
        (C2H5O 1)
        (PC2H4OH 1)
        (SC2H4OH 1)
        (C2H5O2H 1)
        (C2H3O1-2 1)
        (CH3COCH3 1)
        (CH3COCH2 1)
        (CH3COCH2O2 1)
        (CH3COCH2O2H 1)
        (CH3COCH2O 1)
        (C2H3CHO 1)
        (C2H3CO 1)
        (C2H5CHO 1)
        (C2H5CO 1)
        (CH3OCO 1)
        (IC3H7 1)
        (NC3H7 1)
        (C3H6 1)
        (C3H5-A 1)
        (C3H5-S 1)
        (C3H5-T 1)
        (C3H4-P 1)
        (C3H4-A 1)
        (C3H3 1)
        (C3H2 1)
        (C3H5O 1)
        (C3H6OOH1-2 1)
        (C3H6OOH1-3 1)
        (C3H6OOH2-1 1)
        (C3H6OOH1-2O2 1)
        (C3H6OOH1-3O2 1)
        (C3H6OOH2-1O2 1)
        (IC3H7O2H 1)
        (NC3H7O2 1)
        (IC3H7O 1)
        (C3KET13 1)
        ("C3H51-2,3OOH" 1)
        (C3H6OH 1)
        (HOC3H6O2 1)
        (CH3CHCO 1)
        (AC3H5OOH 1)
        (C4H8-1 1)
        (C4H8-2 1)
        (PC4H9 1)
        (C4H71-1 1)
        (C4H71-3 1)
        (C4H71-4 1)
        (C4H72-2 1)
        (C4H6 1)
        (PC4H9O2 1)
        (PC4H8OH 1)
        (C4H8OH-1O2 1)
        (C4H8OOH1-3 1)
        (C4H8OOH1-3O2 1)
        (NC4KET13 1)
        (C2H5COCH3 1)
        (C2H5COCH2 1)
        (CH2CH2COCH3 1)
        (NC3H7CHO 1)
        (NC3H7CO 1)
        (IC4H9 1)
        (TC4H9 1)
        (IC4H8 1)
        (IC4H7 1)
        (TC4H9O2 1)
        (IC4H8O2H-T 1)
        (IC4H8O 1)
        (TC4H9O 1)
        (TC4H9O2H 1)
        (IC4H7O 1)
        (IC4H8OH 1)
        (IO2C4H8OH 1)
        (IC3H7CHO 1)
        (TC3H6CHO 1)
        (IC3H7CO 1)
        (IC4H7OH 1)
        (IC4H6OH 1)
        (IC3H5CHO 1)
        (IC3H5CO 1)
        (IC3H6CO 1)
        (IC4H7OOH 1)
        (TC3H6O2CHO 1)
        (IC3H5O2HCHO 1)
        (CH2CCH2OH 1)
        (C5H11-1 1)
        (C5H10-1 1)
        (C5H10-2 1)
        (C5H81-3 1)
        (C5H91-3 1)
        (C5H91-4 1)
        (C5H92-4 1)
        (C5H10OH-2 1)
        (O2C5H10OH-2 1)
        (C6H13-1 1)
        (C6H12-1 1)
        (NC4H9CHO 1)
        (NC4H9CO 1)
        (NC3H7COCH2 1)