FoamFile
{
    version     2.0;
    format      ascii;
    class       dictionary;
    object      thermo.compressibleGas;
}

C5H82OOH4-5
{
    specie
    {
        molWeight       101.125;
    }
    elements
    {
        C       5;
        H       9;
        O       2;
    }
    thermodynamics
    {
        Tlow            300;
        Thigh           5000;
        Tcommon         1390;
        highCpCoeffs    ( 20.2523998 0.0200480932 -6.98766359e-06 1.09864079e-09 -6.43037097e-14 -144.634187 -74.1677167 );
        lowCpCoeffs     ( 0.661394013 0.068535193 -5.44450677e-05 2.28501169e-08 -3.95647262e-12 6469.65092 30.2230223 );
    }
    transport
    {
        As              1.04817200949e-06;
        Ts              499.757727654;
    }
}

C5H92O2-4
{
    specie
    {
        molWeight       101.125;
    }
    elements
    {
        C       5;
        H       9;
        O       2;
    }
    thermodynamics
    {
        Tlow            300;
        Thigh           5000;
        Tcommon         1386;
        highCpCoeffs    ( 18.7422756 0.0213380683 -7.43357984e-06 1.16828688e-09 -6.83588686e-14 -7544.50706 -68.7582545 );
        lowCpCoeffs     ( 0.901375645 0.063852813 -4.77374522e-05 1.92787152e-08 -3.28774895e-12 -1297.33332 26.9893904 );
    }
    transport
    {
        As              1.04817200949e-06;
        Ts              499.757727654;
    }
}

C5H91O2-3
{
    specie
    {
        molWeight       101.125;
    }
    elements
    {
        C       5;
        H       9;
        O       2;
    }
    thermodynamics
    {
        Tlow            300;
        Thigh           5000;
        Tcommon         1391;
        highCpCoeffs    ( 18.670221 0.0216216768 -7.48512415e-06 1.17139079e-09 -6.83358511e-14 -5948.93165 -67.8134047 );
        lowCpCoeffs     ( 0.343181024 0.0676700566 -5.38079915e-05 2.31484493e-08 -4.140731e-12 225.231466 29.6899952 );
    }
    transport
    {
        As              1.04817200949e-06;
        Ts              499.757727654;
    }
}

C5H91O2-4
{
    specie
    {
        molWeight       101.125;
    }
    elements
    {
        C       5;
        H       9;
        O       2;
    }
    thermodynamics
    {
        Tlow            300;
        Thigh           5000;
        Tcommon         1391;
        highCpCoeffs    ( 18.4021744 0.0217923554 -7.53113607e-06 1.17721317e-09 -6.86192272e-14 -6360.49709 -66.0160803 );
        lowCpCoeffs     ( 0.829161679 0.0649730353 -4.98486874e-05 2.07535028e-08 -3.62109673e-12 -348.70926 27.8111162 );
    }
    transport
    {
        As              1.04817200949e-06;
        Ts              499.757727654;
    }
}

C5H91O2-5
{
    specie
    {
        molWeight       101.125;
    }
    elements
    {
        C       5;
        H       9;
        O       2;
    }
    thermodynamics
    {
        Tlow            300;
        Thigh           5000;
        Tcommon         1388;
        highCpCoeffs    ( 17.7874223 0.0223672091 -7.74125889e-06 1.21125611e-09 -7.06521652e-14 -4119.46666 -63.0035459 );
        lowCpCoeffs     ( 1.45241685 0.0601856302 -4.23740334e-05 1.62426968e-08 -2.66522777e-12 1719.64569 25.0683944 );
    }
    transport
    {
        As              1.04817200949e-06;
        Ts              499.757727654;
    }
}

C5H81OOH3-4
{
    specie
    {
        molWeight       101.125;
    }
    elements
    {
        C       5;
        H       9;
        O       2;
    }
    thermodynamics
    {
        Tlow            300;
        Thigh           5000;
        Tcommon         1387;
        highCpCoeffs    ( 20.4736244 0.0193718338 -6.6528595e-06 1.03631449e-09 -6.02831329e-14 -102.391566 -75.1780148 );
        lowCpCoeffs     ( 0.321512682 0.0681363037 -5.23290322e-05 2.0738863e-08 -3.35294073e-12 6719.31786 32.441897 );
    }
    transport
    {
        As              1.04817200949e-06;
        Ts              499.757727654;
    }
}

C5H81OOH3-5
{
    specie
    {
        molWeight       101.125;
    }
    elements
    {
        C       5;
        H       9;
        O       2;
    }
    thermodynamics
    {
        Tlow            300;
        Thigh           5000;
        Tcommon         1391;
        highCpCoeffs    ( 20.7195327 0.0196364025 -6.84241764e-06 1.07563823e-09 -6.2951164e-14 1198.96467 -76.346772 );
        lowCpCoeffs     ( 0.122655285 0.0720652015 -5.96557159e-05 2.5893034e-08 -4.58741292e-12 7993.06548 32.8640779 );
    }
    transport
    {
        As              1.04817200949e-06;
        Ts              499.757727654;
    }
}

C5H81OOH4-3
{
    specie
    {
        molWeight       101.125;
    }
    elements
    {
        C       5;
        H       9;
        O       2;
    }
    thermodynamics
    {
        Tlow            300;
        Thigh           5000;
        Tcommon         1395;
        highCpCoeffs    ( 21.3003585 0.0195078183 -6.78481644e-06 1.06526973e-09 -6.22918022e-14 -6036.38639 -83.2373187 );
        lowCpCoeffs     ( -1.09905666 0.0785076363 -6.81368662e-05 3.06237682e-08 -5.54283245e-12 1126.81194 34.7817523 );
    }
    transport
    {
        As              1.04817200949e-06;
        Ts              499.757727654;
    }
}

C5H81OOH4-5
{
    specie
    {
        molWeight       101.125;
    }
    elements
    {
        C       5;
        H       9;
        O       2;
    }
    thermodynamics
    {
        Tlow            300;
        Thigh           5000;
        Tcommon         1392;
        highCpCoeffs    ( 20.5400792 0.0197587133 -6.87784366e-06 1.08045541e-09 -6.3202576e-14 738.073415 -75.0954151 );
        lowCpCoeffs     ( 0.338002912 0.0705163186 -5.72050085e-05 2.43500517e-08 -4.24439952e-12 7460.51091 32.2447136 );
    }
    transport
    {
        As              1.04817200949e-06;
        Ts              499.757727654;
    }
}

C5H81OOH5-4
{
    specie
    {
        molWeight       101.125;
    }
    elements
    {
        C       5;
        H       9;
        O       2;
    }
    thermodynamics
    {
        Tlow            300;
        Thigh           5000;
        Tcommon         1378;
        highCpCoeffs    ( 19.9797637 0.0194783902 -6.63044969e-06 1.02741023e-09 -5.95687008e-14 1582.34802 -71.841208 );
        lowCpCoeffs     ( 1.40984227 0.0605508825 -4.03214237e-05 1.31746719e-08 -1.67859779e-12 8220.5933 28.6434933 );
    }
    transport
    {
        As              1.04817200949e-06;
        Ts              499.757727654;
    }
}

C5H81OOH5-3
{
    specie
    {
        molWeight       101.125;
    }
    elements
    {
        C       5;
        H       9;
        O       2;
    }
    thermodynamics
    {
        Tlow            300;
        Thigh           5000;
        Tcommon         1392;
        highCpCoeffs    ( 20.684127 0.0200877308 -6.99755273e-06 1.09981315e-09 -6.43576906e-14 -3796.37676 -80.219683 );
        lowCpCoeffs     ( -0.480015195 0.0737366908 -6.06933626e-05 2.61394273e-08 -4.59439636e-12 3195.91805 32.0592964 );
    }
    transport
    {
        As              1.04817200949e-06;
        Ts              499.757727654;
    }
}

C5H92O2-1
{
    specie
    {
        molWeight       101.125;
    }
    elements
    {
        C       5;
        H       9;
        O       2;
    }
    thermodynamics
    {
        Tlow            300;
        Thigh           5000;
        Tcommon         1382;
        highCpCoeffs    ( 17.3081531 0.0228361563 -7.91701528e-06 1.24017112e-09 -7.23964243e-14 -4774.73659 -60.9976106 );
        lowCpCoeffs     ( 3.26704287 0.0511396085 -2.90627615e-05 8.29183575e-09 -9.77238694e-13 687.723123 16.2365492 );
    }
    transport
    {
        As              1.04817200949e-06;
        Ts              499.757727654;
    }
}

C5H81OOH3-4O2
{
    specie
    {
        molWeight       133.123;
    }
    elements
    {
        C       5;
        H       9;
        O       4;
    }
    thermodynamics
    {
        Tlow            300;
        Thigh           5000;
        Tcommon         1391;
        highCpCoeffs    ( 25.189954 0.0206629888 -7.23143253e-06 1.14009288e-09 -6.68582448e-14 -20299.5332 -95.8973374 );
        lowCpCoeffs     ( 0.700675697 0.086176303 -7.69681261e-05 3.56494726e-08 -6.63419204e-12 -12510.3846 32.8746076 );
    }
    transport
    {
        As              1.20262392326e-06;
        Ts              499.757727654;
    }
}

C5H81OOH3-5O2
{
    specie
    {
        molWeight       133.123;
    }
    elements
    {
        C       5;
        H       9;
        O       4;
    }
    thermodynamics
    {
        Tlow            300;
        Thigh           5000;
        Tcommon         1388;
        highCpCoeffs    ( 24.5930237 0.0212211773 -7.43558644e-06 1.17319038e-09 -6.88358634e-14 -18056.8519 -93.3693862 );
        lowCpCoeffs     ( 1.50852696 0.080776805 -6.87240343e-05 3.07180782e-08 -5.59438096e-12 -10475.8678 28.8278214 );
    }
    transport
    {
        As              1.20262392326e-06;
        Ts              499.757727654;
    }
}

C5H82OOH4-5O2
{
    specie
    {
        molWeight       133.123;
    }
    elements
    {
        C       5;
        H       9;
        O       4;
    }
    thermodynamics
    {
        Tlow            300;
        Thigh           5000;
        Tcommon         1385;
        highCpCoeffs    ( 24.7038351 0.0208612744 -7.34831615e-06 1.16354536e-09 -6.84394748e-14 -19656.6109 -94.5061735 );
        lowCpCoeffs     ( 2.01349275 0.0772630274 -6.31038478e-05 2.70928041e-08 -4.7867663e-12 -11993.207 26.3607326 );
    }
    transport
    {
        As              1.20262392326e-06;
        Ts              499.757727654;
    }
}

NC5D1KET45
{
    specie
    {
        molWeight       116.116;
    }
    elements
    {
        C       5;
        H       8;
        O       3;
    }
    thermodynamics
    {
        Tlow            300;
        Thigh           5000;
        Tcommon         1385;
        highCpCoeffs    ( 21.4757522 0.019247275 -6.76598303e-06 1.06986594e-09 -6.28685877e-14 -37587.2106 -80.710937 );
        lowCpCoeffs     ( 1.82097767 0.0674699547 -5.38264037e-05 2.27270486e-08 -3.97590535e-12 -30874.557 24.229235 );
    }
    transport
    {
        As              9.55863986806e-07;
        Ts              486.347715256;
    }
}

NC5D1KET35
{
    specie
    {
        molWeight       116.116;
    }
    elements
    {
        C       5;
        H       8;
        O       3;
    }
    thermodynamics
    {
        Tlow            300;
        Thigh           5000;
        Tcommon         1385;
        highCpCoeffs    ( 21.4757522 0.019247275 -6.76598303e-06 1.06986594e-09 -6.28685877e-14 -37587.2106 -80.710937 );
        lowCpCoeffs     ( 1.82097767 0.0674699547 -5.38264037e-05 2.27270486e-08 -3.97590535e-12 -30874.557 24.229235 );
    }
    transport
    {
        As              9.55863986806e-07;
        Ts              486.347715256;
    }
}

NC5D2KET45
{
    specie
    {
        molWeight       116.116;
    }
    elements
    {
        C       5;
        H       8;
        O       3;
    }
    thermodynamics
    {
        Tlow            300;
        Thigh           5000;
        Tcommon         1379;
        highCpCoeffs    ( 20.9987749 0.0197036451 -6.93515196e-06 1.09752667e-09 -6.45309266e-14 -37989.9302 -79.3500933 );
        lowCpCoeffs     ( 3.71881929 0.0580429795 -3.9935113e-05 1.44076499e-08 -2.20489062e-12 -31667.1772 14.3761257 );
    }
    transport
    {
        As              9.55863986806e-07;
        Ts              486.347715256;
    }
}

CY3C5H8O
{
    specie
    {
        molWeight       84.118;
    }
    elements
    {
        C       5;
        H       8;
        O       1;
    }
    thermodynamics
    {
        Tlow            300;
        Thigh           5000;
        Tcommon         1402;
        highCpCoeffs    ( 16.7912845 0.0186881223 -6.41180595e-06 9.97554346e-10 -5.79620662e-14 -10500.5341 -64.9852651 );
        lowCpCoeffs     ( -4.02699181 0.0741038879 -6.41370347e-05 2.86307024e-08 -5.12072635e-12 -3956.17677 44.4028774 );
    }
    transport
    {
        As              9.55977696174e-07;
        Ts              499.757727654;
    }
}

NC5D1KET34
{
    specie
    {
        molWeight       116.116;
    }
    elements
    {
        C       5;
        H       8;
        O       3;
    }
    thermodynamics
    {
        Tlow            300;
        Thigh           5000;
        Tcommon         1385;
        highCpCoeffs    ( 21.4757522 0.019247275 -6.76598303e-06 1.06986594e-09 -6.28685877e-14 -37587.2106 -80.710937 );
        lowCpCoeffs     ( 1.82097767 0.0674699547 -5.38264037e-05 2.27270486e-08 -3.97590535e-12 -30874.557 24.229235 );
    }
    transport
    {
        As              9.55863986806e-07;
        Ts              486.347715256;
    }
}

H
{
    specie
    {
        molWeight       1.008;
    }
    elements
    {
        H       1;
    }
    thermodynamics
    {
        Tlow            300;
        Thigh           5000;
        Tcommon         5000;
        highCpCoeffs    ( 2.5 0 0 0 0 25471.63 -0.4601176 );
        lowCpCoeffs     ( 2.5 0 0 0 0 25471.63 -0.4601176 );
    }
    transport
    {
        As              8.48337417105e-07;
        Ts              163.76607146;
    }
}

H2
{
    specie
    {
        molWeight       2.016;
    }
    elements
    {
        H       2;
    }
    thermodynamics
    {
        Tlow            300;
        Thigh           5000;
        Tcommon         1000;
        highCpCoeffs    ( 2.991423 0.0007000644 -5.633829e-08 -9.231578e-12 1.582752e-15 -835.034 -1.35511 );
        lowCpCoeffs     ( 3.298124 0.0008249442 -8.143015e-07 -9.475434e-11 4.134872e-13 -1012.521 -3.294094 );
    }
    transport
    {
        As              6.797551051e-07;
        Ts              92.4438205795;
    }
}

O
{
    specie
    {
        molWeight       15.999;
    }
    elements
    {
        O       1;
    }
    thermodynamics
    {
        Tlow            300;
        Thigh           5000;
        Tcommon         1000;
        highCpCoeffs    ( 2.54206 -2.755062e-05 -3.102803e-09 4.551067e-12 -4.368052e-16 29230.8 4.920308 );
        lowCpCoeffs     ( 2.946429 -0.001638166 2.421032e-06 -1.602843e-09 3.890696e-13 29147.64 2.963995 );
    }
    transport
    {
        As              1.96971164063e-06;
        Ts              111.745119309;
    }
}

O2
{
    specie
    {
        molWeight       31.998;
    }
    elements
    {
        O       2;
    }
    thermodynamics
    {
        Tlow            300;
        Thigh           5000;
        Tcommon         1000;
        highCpCoeffs    ( 3.697578 0.0006135197 -1.258842e-07 1.775281e-11 -1.136435e-15 -1233.93 3.189166 );
        lowCpCoeffs     ( 3.212936 0.001127486 -5.75615e-07 1.313877e-09 -8.768554e-13 -1005.249 6.034738 );
    }
    transport
    {
        As              1.71384601644e-06;
        Ts              131.163959866;
    }
}

OH
{
    specie
    {
        molWeight       17.007;
    }
    elements
    {
        H       1;
        O       1;
    }
    thermodynamics
    {
        Tlow            300;
        Thigh           5000;
        Tcommon         1710;
        highCpCoeffs    ( 2.8537604 0.00102994334 -2.32666477e-07 1.93750704e-11 -3.15759847e-16 3699.4972 5.78756825 );
        lowCpCoeffs     ( 3.41896226 0.000319255801 -3.08292717e-07 3.64407494e-10 -1.00195479e-13 3452.64448 2.54433372 );
    }
    transport
    {
        As              2.03081371707e-06;
        Ts              111.745119309;
    }
}

H2O
{
    specie
    {
        molWeight       18.015;
    }
    elements
    {
        H       2;
        O       1;
    }
    thermodynamics
    {
        Tlow            300;
        Thigh           5000;
        Tcommon         1000;
        highCpCoeffs    ( 2.672146 0.003056293 -8.73026e-07 1.200996e-10 -6.391618e-15 -29899.21 6.862817 );
        lowCpCoeffs     ( 3.386842 0.003474982 -6.354696e-06 6.968581e-09 -2.506588e-12 -30208.11 2.590233 );
    }
    transport
    {
        As              1.89721648888e-06;
        Ts              654.534550396;
    }
}

N2
{
    specie
    {
        molWeight       28.014;
    }
    elements
    {
        N       2;
    }
    thermodynamics
    {
        Tlow            300;
        Thigh           5000;
        Tcommon         1000;
        highCpCoeffs    ( 2.92664 0.001487977 -5.684761e-07 1.009704e-10 -6.753351e-15 -922.7977 5.980528 );
        lowCpCoeffs     ( 3.298677 0.00140824 -3.963222e-06 5.641515e-09 -2.444855e-12 -1020.9 3.950372 );
    }
    transport
    {
        As              1.47458144335e-06;
        Ts              123.657816022;
    }
}

HO2
{
    specie
    {
        molWeight       33.006;
    }
    elements
    {
        H       1;
        O       2;
    }
    thermodynamics
    {
        Tlow            200;
        Thigh           3500;
        Tcommon         1000;
        highCpCoeffs    ( 4.0172109 0.00223982013 -6.3365815e-07 1.1424637e-10 -1.07908535e-14 111.856713 3.78510215 );
        lowCpCoeffs     ( 4.30179801 -0.00474912051 2.11582891e-05 -2.42763894e-08 9.29225124e-12 294.80804 3.71666245 );
    }
    transport
    {
        As              1.74063146544e-06;
        Ts              131.163959866;
    }
}

H2O2
{
    specie
    {
        molWeight       34.014;
    }
    elements
    {
        H       2;
        O       2;
    }
    thermodynamics
    {
        Tlow            300;
        Thigh           5000;
        Tcommon         1000;
        highCpCoeffs    ( 4.573167 0.004336136 -1.474689e-06 2.348904e-10 -1.431654e-14 -18006.96 0.501137 );
        lowCpCoeffs     ( 3.388754 0.006569226 -1.485013e-07 -4.625806e-09 2.471515e-12 -17663.15 6.785363 );
    }
    transport
    {
        As              1.76701093061e-06;
        Ts              131.163959866;
    }
}

CO
{
    specie
    {
        molWeight       28.01;
    }
    elements
    {
        C       1;
        O       1;
    }
    thermodynamics
    {
        Tlow            300;
        Thigh           5000;
        Tcommon         1429;
        highCpCoeffs    ( 3.1121689 0.00115948283 -3.38480362e-07 4.41403098e-11 -2.12862228e-15 -14271.8539 5.71725177 );
        lowCpCoeffs     ( 3.19036352 0.000894419972 -3.24927563e-08 -1.04599967e-10 2.41965693e-14 -14286.9054 5.33277914 );
    }
    transport
    {
        As              1.4503791723e-06;
        Ts              124.072927727;
    }
}

CO2
{
    specie
    {
        molWeight       44.009;
    }
    elements
    {
        C       1;
        O       2;
    }
    thermodynamics
    {
        Tlow            300;
        Thigh           5000;
        Tcommon         1380;
        highCpCoeffs    ( 5.18953018 0.00206006476 -7.33575324e-07 1.17004374e-10 -6.91729215e-15 -49317.8953 -5.18289303 );
        lowCpCoeffs     ( 2.5793049 0.00824684987 -6.42716047e-06 2.54637024e-09 -4.12030443e-13 -48416.283 8.81141041 );
    }
    transport
    {
        As              1.6422907397e-06;
        Ts              267.140615556;
    }
}

CH2O
{
    specie
    {
        molWeight       30.026;
    }
    elements
    {
        C       1;
        H       2;
        O       1;
    }
    thermodynamics
    {
        Tlow            300;
        Thigh           5000;
        Tcommon         1486;
        highCpCoeffs    ( 4.02068394 0.00509903417 -1.7643048e-06 2.76025879e-10 -1.60998042e-14 -14928.7258 1.06525547 );
        lowCpCoeffs     ( 3.00754197 0.00304729496 5.25109246e-06 -5.12019281e-09 1.27133795e-12 -14118.8397 8.10120233 );
    }
    transport
    {
        As              1.44344567574e-06;
        Ts              493.840890157;
    }
}

HCO
{
    specie
    {
        molWeight       29.018;
    }
    elements
    {
        C       1;
        H       1;
        O       1;
    }
    thermodynamics
    {
        Tlow            300;
        Thigh           5000;
        Tcommon         1690;
        highCpCoeffs    ( 3.44148164 0.00352157719 -1.24136118e-06 1.97328644e-10 -1.16538616e-14 3974.09684 6.24593456 );
        lowCpCoeffs     ( 3.81049965 0.000813269825 3.13164701e-06 -2.39478268e-09 5.06894554e-13 4038.59901 4.94843165 );
    }
    transport
    {
        As              1.41900995372e-06;
        Ts              493.840890156;
    }
}

HO2CHO
{
    specie
    {
        molWeight       62.024;
    }
    elements
    {
        C       1;
        H       2;
        O       3;
    }
    thermodynamics
    {
        Tlow            300;
        Thigh           5000;
        Tcommon         1378;
        highCpCoeffs    ( 9.87503878 0.00464663708 -1.67230522e-06 2.68624413e-10 -1.59595232e-14 -38050.2496 -22.4939155 );
        lowCpCoeffs     ( 2.42464726 0.021970638 -1.68705546e-05 6.25612194e-09 -9.11645843e-13 -35482.8006 17.5027796 );
    }
    transport
    {
        As              1.72618027655e-06;
        Ts              453.734102548;
    }
}

O2CHO
{
    specie
    {
        molWeight       61.016;
    }
    elements
    {
        C       1;
        H       1;
        O       3;
    }
    thermodynamics
    {
        Tlow            300;
        Thigh           5000;
        Tcommon         1368;
        highCpCoeffs    ( 7.24075139 0.00463312951 -1.63693995e-06 2.59706693e-10 -1.52964699e-14 -18702.7618 -6.49547212 );
        lowCpCoeffs     ( 3.96059309 0.0106002279 -5.25713351e-06 1.01716726e-09 -2.87487602e-14 -17359.9383 11.7807483 );
    }
    transport
    {
        As              1.71209607338e-06;
        Ts              453.734102547;
    }
}

HOCHO
{
    specie
    {
        molWeight       46.025;
    }
    elements
    {
        C       1;
        H       2;
        O       2;
    }
    thermodynamics
    {
        Tlow            300;
        Thigh           5000;
        Tcommon         1419;
        highCpCoeffs    ( 7.6713444 0.00443426373 -1.60867436e-06 2.5977002e-10 -1.54899704e-14 -48970.866 -17.3024418 );
        lowCpCoeffs     ( 1.28069021 0.0152887758 -5.64150476e-06 -1.22968799e-09 8.14273233e-13 -46434.7524 18.3142081 );
    }
    transport
    {
        As              1.48697327502e-06;
        Ts              453.734102547;
    }
}

OCHO
{
    specie
    {
        molWeight       45.017;
    }
    elements
    {
        C       1;
        H       1;
        O       2;
    }
    thermodynamics
    {
        Tlow            300;
        Thigh           5000;
        Tcommon         1412;
        highCpCoeffs    ( 6.4981556 0.00322319012 -1.17099595e-06 1.89272918e-10 -1.12937e-14 -18167.9042 -10.0412613 );
        lowCpCoeffs     ( 1.42991854 0.0122803284 -5.28461096e-06 -3.73026551e-10 5.07953571e-13 -16204.2814 18.0411779 );
    }
    transport
    {
        As              1.76742086818e-06;
        Ts              493.840890156;
    }
}

CH3OH
{
    specie
    {
        molWeight       32.042;
    }
    elements
    {
        C       1;
        H       4;
        O       1;
    }
    thermodynamics
    {
        Tlow            300;
        Thigh           5000;
        Tcommon         1985;
        highCpCoeffs    ( 3.92867513 0.00981626074 -3.40615476e-06 5.35510197e-10 -3.13776029e-14 -26145.4175 2.69464483 );
        lowCpCoeffs     ( 1.82176844 0.012332642 -2.73742177e-06 -1.07387318e-09 4.23644837e-13 -25222.2207 14.81043 );
    }
    transport
    {
        As              1.46924153104e-06;
        Ts              484.436292169;
    }
}

CH2OH
{
    specie
    {
        molWeight       31.034;
    }
    elements
    {
        C       1;
        H       3;
        O       1;
    }
    thermodynamics
    {
        Tlow            300;
        Thigh           5000;
        Tcommon         1399;
        highCpCoeffs    ( 5.41875913 0.00566185244 -1.87471136e-06 2.84441938e-10 -1.62299798e-14 -3614.7554 -3.49277963 );
        lowCpCoeffs     ( 3.05674228 0.0119335634 -8.72501303e-06 3.82781054e-09 -7.22887951e-13 -2831.4019 8.98878133 );
    }
    transport
    {
        As              1.38575785553e-06;
        Ts              439.567740572;
    }
}

CH3O
{
    specie
    {
        molWeight       31.034;
    }
    elements
    {
        C       1;
        H       3;
        O       1;
    }
    thermodynamics
    {
        Tlow            300;
        Thigh           5000;
        Tcommon         1509;
        highCpCoeffs    ( 4.64787019 0.00690830683 -2.34404776e-06 3.6199457e-10 -2.09253541e-14 -299.208881 -1.57740193 );
        lowCpCoeffs     ( 2.23058023 0.00853178586 1.02166624e-06 -3.41046916e-09 9.94691038e-13 945.939708 12.8377569 );
    }
    transport
    {
        As              1.38575785553e-06;
        Ts              439.567740572;
    }
}

CH3O2H
{
    specie
    {
        molWeight       48.041;
    }
    elements
    {
        C       1;
        H       4;
        O       2;
    }
    thermodynamics
    {
        Tlow            300;
        Thigh           5000;
        Tcommon         1367;
        highCpCoeffs    ( 8.80409289 0.00809427218 -2.85843274e-06 4.53369754e-10 -2.66980707e-14 -19851.2174 -21.7000591 );
        lowCpCoeffs     ( 2.83880024 0.0186096249 -8.48165412e-06 1.00387451e-09 1.71612429e-13 -17403.3753 11.6092433 );
    }
    transport
    {
        As              1.79903415033e-06;
        Ts              484.436292169;
    }
}

CH3O2
{
    specie
    {
        molWeight       47.033;
    }
    elements
    {
        C       1;
        H       3;
        O       2;
    }
    thermodynamics
    {
        Tlow            300;
        Thigh           5000;
        Tcommon         1365;
        highCpCoeffs    ( 6.34718801 0.00792089358 -2.76601913e-06 4.35360631e-10 -2.54984762e-14 -1834.36055 -7.42552545 );
        lowCpCoeffs     ( 3.8049759 0.0098078466 -3.90940624e-07 -2.23072602e-09 6.4331082e-13 -455.625796 7.817891 );
    }
    transport
    {
        As              1.78006035805e-06;
        Ts              484.436292169;
    }
}

CH4
{
    specie
    {
        molWeight       16.043;
    }
    elements
    {
        C       1;
        H       4;
    }
    thermodynamics
    {
        Tlow            300;
        Thigh           5000;
        Tcommon         1462;
        highCpCoeffs    ( 4.09617653 0.00744330845 -2.638719e-06 4.19577604e-10 -2.4750805e-14 -11383.5704 -4.67561383 );
        lowCpCoeffs     ( 3.7211302 -0.00250293289 1.90246534e-05 -1.46871253e-08 3.43791152e-12 -10142.4099 1.22776596 );
    }
    transport
    {
        As              1.01497076545e-06;
        Ts              160.46783683;
    }
}

CH3
{
    specie
    {
        molWeight       15.035;
    }
    elements
    {
        C       1;
        H       3;
    }
    thermodynamics
    {
        Tlow            300;
        Thigh           5000;
        Tcommon         1389;
        highCpCoeffs    ( 3.51281376 0.00511412613 -1.6763205e-06 2.52495174e-10 -1.43302923e-14 16123.8027 1.62436112 );
        lowCpCoeffs     ( 3.43858162 0.00407752664 3.19830994e-07 -9.4766939e-10 2.21828166e-13 16316.4018 2.52807406 );
    }
    transport
    {
        As              9.53879412283e-07;
        Ts              162.84756132;
    }
}

CH2
{
    specie
    {
        molWeight       14.027;
    }
    elements
    {
        C       1;
        H       2;
    }
    thermodynamics
    {
        Tlow            250;
        Thigh           4000;
        Tcommon         1000;
        highCpCoeffs    ( 3.636408 0.001933057 -1.687016e-07 -1.009899e-10 1.808256e-14 45341.34 2.156561 );
        lowCpCoeffs     ( 3.762237 0.001159819 2.489585e-07 8.800836e-10 -7.332435e-13 45367.91 1.712578 );
    }
    transport
    {
        As              9.21348976479e-07;
        Ts              162.84756132;
    }
}

CH2(S)
{
    specie
    {
        molWeight       14.027;
    }
    elements
    {
        C       1;
        H       2;
    }
    thermodynamics
    {
        Tlow            300;
        Thigh           4000;
        Tcommon         1000;
        highCpCoeffs    ( 3.552889 0.002066788 -1.914116e-07 -1.104673e-10 2.02135e-14 49849.75 1.68657 );
        lowCpCoeffs     ( 3.971265 -0.0001699089 1.025369e-06 2.492551e-09 -1.981266e-12 49893.68 0.05753207 );
    }
    transport
    {
        As              9.21348976479e-07;
        Ts              162.84756132;
    }
}

CH
{
    specie
    {
        molWeight       13.019;
    }
    elements
    {
        C       1;
        H       1;
    }
    thermodynamics
    {
        Tlow            300;
        Thigh           5000;
        Tcommon         1000;
        highCpCoeffs    ( 2.196223 0.002340381 -7.058201e-07 9.007582e-11 -3.85504e-15 70867.23 9.178373 );
        lowCpCoeffs     ( 3.200202 0.002072876 -5.134431e-06 5.73389e-09 -1.955533e-12 70452.59 3.331588 );
    }
    transport
    {
        As              1.77682659434e-06;
        Ts              111.745119309;
    }
}

C2H6
{
    specie
    {
        molWeight       30.07;
    }
    elements
    {
        C       2;
        H       6;
    }
    thermodynamics
    {
        Tlow            300;
        Thigh           5000;
        Tcommon         1383;
        highCpCoeffs    ( 6.0597263 0.0130382837 -4.48103942e-06 6.97762095e-10 -4.05606353e-14 -13575.1226 -12.8608001 );
        lowCpCoeffs     ( 0.0478623203 0.0240569127 -1.15155912e-05 2.48666238e-09 -1.78343944e-13 -11092.3014 20.6544071 );
    }
    transport
    {
        As              1.01582410714e-06;
        Ts              270.98140575;
    }
}

C2H5
{
    specie
    {
        molWeight       29.062;
    }
    elements
    {
        C       2;
        H       5;
    }
    thermodynamics
    {
        Tlow            300;
        Thigh           5000;
        Tcommon         1387;
        highCpCoeffs    ( 5.8878439 0.0103076793 -3.46844396e-06 5.32499257e-10 -3.06512651e-14 11506.5499 -8.49651771 );
        lowCpCoeffs     ( 1.32730217 0.0176656753 -6.14926558e-06 -3.01143466e-10 4.38617775e-13 13428.4028 17.1789216 );
    }
    transport
    {
        As              9.98652860435e-07;
        Ts              270.98140575;
    }
}

C2H4
{
    specie
    {
        molWeight       28.054;
    }
    elements
    {
        C       2;
        H       4;
    }
    thermodynamics
    {