FoamFile
{
    version     2.0;
    format      ascii;
    class       dictionary;
    object      transportProperties;
}

species
{
    C5H82OOH4-5
    {
        As          1.67212e-06;
        Ts          170.672;
    }
    C5H92O2-4
    {
        As          1.67212e-06;
        Ts          170.672;
    }
    C5H91O2-3
    {
        As          1.67212e-06;
        Ts          170.672;
    }
    C5H91O2-4
    {
        As          1.67212e-06;
        Ts          170.672;
    }
    C5H91O2-5
    {
        As          1.67212e-06;
        Ts          170.672;
    }
    C5H81OOH3-4
    {
        As          1.67212e-06;
        Ts          170.672;
    }
    C5H81OOH3-5
    {
        As          1.67212e-06;
        Ts          170.672;
    }
    C5H81OOH4-3
    {
        As          1.67212e-06;
        Ts          170.672;
    }
    C5H81OOH4-5
    {
        As          1.67212e-06;
        Ts          170.672;
    }
    C5H81OOH5-4
    {
        As          1.67212e-06;
        Ts          170.672;
    }
    C5H81OOH5-3
    {
        As          1.67212e-06;
        Ts          170.672;
    }
    C5H92O2-1
    {
        As          1.67212e-06;
        Ts          170.672;
    }
    C5H81OOH3-4O2
    {
        As          1.67212e-06;
        Ts          170.672;
    }
    C5H81OOH3-5O2
    {
        As          1.67212e-06;
        Ts          170.672;
    }
    C5H82OOH4-5O2
    {
        As          1.67212e-06;
        Ts          170.672;
    }
    NC5D1KET45
    {
        As          1.67212e-06;
        Ts          170.672;
    }
    NC5D1KET35
    {
        As          1.67212e-06;
        Ts          170.672;
    }
    NC5D2KET45
    {
        As          1.67212e-06;
        Ts          170.672;
    }
    CY3C5H8O
    {
        As          1.67212e-06;
        Ts          170.672;
    }
    NC5D1KET34
    {
        As          1.67212e-06;
        Ts          170.672;
    }
    H
    {
        As          1.67212e-06;
        Ts          170.672;
    }
    H2
    {
        As          1.67212e-06;
        Ts          170.672;
    }
    O
    {
        As          1.67212e-06;
        Ts          170.672;
    }
    O2
    {
        As          1.67212e-06;
        Ts          170.672;
    }
    OH
    {
        As          1.67212e-06;
        Ts          170.672;
    }
    H2O
    {
        As          1.67212e-06;
        Ts          170.672;
    }
    N2
    {
        As          1.67212e-06;
        Ts          170.672;
    }
    HO2
    {
        As          1.67212e-06;
        Ts          170.672;
    }
    H2O2
    {
        As          1.67212e-06;
        Ts          170.672;
    }
    CO
    {
        As          1.67212e-06;
        Ts          170.672;
    }
    CO2
    {
        As          1.67212e-06;
        Ts          170.672;
    }
    CH2O
    {
        As          1.67212e-06;
        Ts          170.672;
    }
    HCO
    {
        As          1.67212e-06;
        Ts          170.672;
    }
    HO2CHO
    {
        As          1.67212e-06;
        Ts          170.672;
    }
    O2CHO
    {
        As          1.67212e-06;
        Ts          170.672;
    }
    HOCHO
    {
        As          1.67212e-06;
        Ts          170.672;
    }
    OCHO
    {
        As          1.67212e-06;
        Ts          170.672;
    }
    CH3OH
    {
        As          1.67212e-06;
        Ts          170.672;
    }
    CH2OH
    {
        As          1.67212e-06;
        Ts          170.672;
    }
    CH3O
    {
        As          1.67212e-06;
        Ts          170.672;
    }
    CH3O2H
    {
        As          1.67212e-06;
        Ts          170.672;
    }
    CH3O2
    {
        As          1.67212e-06;
        Ts          170.672;
    }
    CH4
    {
        As          1.67212e-06;
        Ts          170.672;
    }
    CH3
    {
        As          1.67212e-06;
        Ts          170.672;
    }
    CH2
    {
        As          1.67212e-06;
        Ts          170.672;
    }
    CH2(S)
    {
        As          1.67212e-06;
        Ts          170.672;
    }
    CH
    {
        As          1.67212e-06;
        Ts          170.672;
    }
    C2H6
    {
        As          1.67212e-06;
        Ts          170.672;
    }
    C2H5
    {
        As          1.67212e-06;
        Ts          170.672;
    }
    C2H4
    {
        As          1.67212e-06;
        Ts          170.672;
    }
    C2H3
    {
        As          1.67212e-06;
        Ts          170.672;
    }
    C2H2
    {
        As          1.67212e-06;
        Ts          170.672;
    }
    C2H
    {
        As          1.67212e-06;
        Ts          170.672;
    }
    CH3CHO
    {
        As          1.67212e-06;
        Ts          170.672;
    }
    CH3CO
    {
        As          1.67212e-06;
        Ts          170.672;
    }
    CH2CHO
    {
        As          1.67212e-06;
        Ts          170.672;
    }
    CH2CO
    {
        As          1.67212e-06;
        Ts          170.672;
    }
    HCCO
    {
        As          1.67212e-06;
        Ts          170.672;
    }
    CH3CO3H
    {
        As          1.67212e-06;
        Ts          170.672;
    }
    CH3CO3
    {
        As          1.67212e-06;
        Ts          170.672;
    }
    CH3CO2
    {
        As          1.67212e-06;
        Ts          170.672;
    }
    C2H5OH
    {
        As          1.67212e-06;
        Ts          170.672;
    }
    C2H5O
    {
        As          1.67212e-06;
        Ts          170.672;
    }
    PC2H4OH
    {
        As          1.67212e-06;
        Ts          170.672;
    }
    SC2H4OH
    {
        As          1.67212e-06;
        Ts          170.672;
    }
    C2H5O2H
    {
        As          1.67212e-06;
        Ts          170.672;
    }
    C2H3O1-2
    {
        As          1.67212e-06;
        Ts          170.672;
    }
    CH3COCH3
    {
        As          1.67212e-06;
        Ts          170.672;
    }
    CH3COCH2
    {
        As          1.67212e-06;
        Ts          170.672;
    }
    CH3COCH2O2
    {
        As          1.67212e-06;
        Ts          170.672;
    }
    CH3COCH2O2H
    {
        As          1.67212e-06;
        Ts          170.672;
    }
    CH3COCH2O
    {
        As          1.67212e-06;
        Ts          170.672;
    }
    C2H3CHO
    {
        As          1.67212e-06;
        Ts          170.672;
    }
    C2H3CO
    {
        As          1.67212e-06;
        Ts          170.672;
    }
    C2H5CHO
    {
        As          1.67212e-06;
        Ts          170.672;
    }
    C2H5CO
    {
        As          1.67212e-06;
        Ts          170.672;
    }
    CH3OCO
    {
        As          1.67212e-06;
        Ts          170.672;
    }
    IC3H7
    {
        As          1.67212e-06;
        Ts          170.672;
    }
    NC3H7
    {
        As          1.67212e-06;
        Ts          170.672;
    }
    C3H6
    {
        As          1.67212e-06;
        Ts          170.672;
    }
    C3H5-A
    {
        As          1.67212e-06;
        Ts          170.672;
    }
    C3H5-S
    {
        As          1.67212e-06;
        Ts          170.672;
    }
    C3H5-T
    {
        As          1.67212e-06;
        Ts          170.672;
    }
    C3H4-P
    {
        As          1.67212e-06;
        Ts          170.672;
    }
    C3H4-A
    {
        As          1.67212e-06;
        Ts          170.672;
    }
    C3H3
    {
        As          1.67212e-06;
        Ts          170.672;
    }
    C3H2
    {
        As          1.67212e-06;
        Ts          170.672;
    }
    C3H5O
    {
        As          1.67212e-06;
        Ts          170.672;
    }
    C3H6OOH1-2
    {
        As          1.67212e-06;
        Ts          170.672;
    }
    C3H6OOH1-3
    {
        As          1.67212e-06;
        Ts          170.672;
    }
    C3H6OOH2-1
    {
        As          1.67212e-06;
        Ts          170.672;
    }
    C3H6OOH1-2O2
    {
        As          1.67212e-06;
        Ts          170.672;
    }
    C3H6OOH1-3O2
    {
        As          1.67212e-06;
        Ts          170.672;
    }
    C3H6OOH2-1O2
    {
        As          1.67212e-06;
        Ts          170.672;
    }
    IC3H7O2H
    {
        As          1.67212e-06;
        Ts          170.672;
    }
    NC3H7O2
    {
        As          1.67212e-06;
        Ts          170.672;
    }
    IC3H7O
    {
        As          1.67212e-06;
        Ts          170.672;
    }
    C3KET13
    {
        As          1.67212e-06;
        Ts          170.672;
    }
    "C3H51-2,3OOH"
    {
        As          1.67212e-06;
        Ts          170.672;
    }
    C3H6OH
    {
        As          1.67212e-06;
        Ts          170.672;
    }
    HOC3H6O2
    {
        As          1.67212e-06;
        Ts          170.672;
    }
    CH3CHCO
    {
        As          1.67212e-06;
        Ts          170.672;
    }
    AC3H5OOH
    {
        As          1.67212e-06;
        Ts          170.672;
    }
    C4H8-1
    {
        As          1.67212e-06;
        Ts          170.672;
    }
    C4H8-2
    {
        As          1.67212e-06;
        Ts          170.672;
    }
    PC4H9
    {
        As          1.67212e-06;
        Ts          170.672;
    }
    C4H71-1
    {
        As          1.67212e-06;
        Ts          170.672;
    }
    C4H71-3
    {
        As          1.67212e-06;
        Ts          170.672;
    }
    C4H71-4
    {
        As          1.67212e-06;
        Ts          170.672;
    }
    C4H72-2
    {
        As          1.67212e-06;
        Ts          170.672;
    }
    C4H6
    {
        As          1.67212e-06;
        Ts          170.672;
    }
    PC4H9O2
    {
        As          1.67212e-06;
        Ts          170.672;
    }
    PC4H8OH
    {
        As          1.67212e-06;
        Ts          170.672;
    }
    C4H8OH-1O2
    {
        As          1.67212e-06;
        Ts          170.672;
    }
    C4H8OOH1-3
    {
        As          1.67212e-06;
        Ts          170.672;
    }
    C4H8OOH1-3O2
    {
        As          1.67212e-06;
        Ts          170.672;
    }
    NC4KET13
    {
        As          1.67212e-06;
        Ts          170.672;
    }
    C2H5COCH3
    {
        As          1.67212e-06;
        Ts          170.672;
    }
    C2H5COCH2
    {
        As          1.67212e-06;
        Ts          170.672;
    }
    CH2CH2COCH3
    {
        As          1.67212e-06;
        Ts          170.672;
    }
    NC3H7CHO
    {
        As          1.67212e-06;
        Ts          170.672;
    }
    NC3H7CO
    {
        As          1.67212e-06;
        Ts          170.672;
    }
    IC4H9
    {
        As          1.67212e-06;
        Ts          170.672;
    }
    TC4H9
    {
        As          1.67212e-06;
        Ts          170.672;
    }
    IC4H8
    {
        As          1.67212e-06;
        Ts          170.672;
    }
    IC4H7
    {
        As          1.67212e-06;
        Ts          170.672;
    }
    TC4H9O2
    {
        As          1.67212e-06;
        Ts          170.672;
    }
    IC4H8O2H-T
    {
        As          1.67212e-06;
        Ts          170.672;
    }
    IC4H8O
    {
        As          1.67212e-06;
        Ts          170.672;
    }
    TC4H9O
    {
        As          1.67212e-06;
        Ts          170.672;
    }
    TC4H9O2H
    {
        As          1.67212e-06;
        Ts          170.672;
    }
    IC4H7O
    {
        As          1.67212e-06;
        Ts          170.672;
    }
    IC4H8OH
    {
        As          1.67212e-06;
        Ts          170.672;
    }
    IO2C4H8OH
    {
        As          1.67212e-06;
        Ts          170.672;
    }
    IC3H7CHO
    {
        As          1.67212e-06;
        Ts          170.672;
    }
    TC3H6CHO
    {
        As          1.67212e-06;
        Ts          170.672;
    }
    IC3H7CO
    {
        As          1.67212e-06;
        Ts          170.672;
    }
    IC4H7OH
    {
        As          1.67212e-06;
        Ts          170.672;
    }
    IC4H6OH
    {
        As          1.67212e-06;
        Ts          170.672;
    }
    IC3H5CHO
    {
        As          1.67212e-06;
        Ts          170.672;
    }
    IC3H5CO
    {
        As          1.67212e-06;
        Ts          170.672;
    }
    IC3H6CO
    {
        As          1.67212e-06;
        Ts          170.672;
    }
    IC4H7OOH
    {
        As          1.67212e-06;
        Ts          170.672;
    }
    TC3H6O2CHO
    {
        As          1.67212e-06;
        Ts          170.672;
    }
    IC3H5O2HCHO
    {
        As          1.67212e-06;
        Ts          170.672;
    }
    CH2CCH2OH
    {
        As          1.67212e-06;
        Ts          170.672;
    }
    C5H11-1
    {
        As          1.67212e-06;
        Ts          170.672;
    }
    C5H10-1
    {
        As          1.67212e-06;
        Ts          170.672;
    }
    C5H10-2
    {
        As          1.67212e-06;
        Ts          170.672;
    }
    C5H81-3
    {
        As          1.67212e-06;
        Ts          170.672;
    }
    C5H91-3
    {
        As          1.67212e-06;
        Ts          170.672;
    }
    C5H91-4
    {
        As          1.67212e-06;
        Ts          170.672;
    }
    C5H92-4
    {
        As          1.67212e-06;
        Ts          170.672;
    }
    C5H10OH-2
    {
        As          1.67212e-06;
        Ts          170.672;
    }
    O2C5H10OH-2
    {
        As          1.67212e-06;
        Ts          170.672;
    }
    C6H13-1
    {
        As          1.67212e-06;
        Ts          170.672;
    }
    C6H12-1
    {
        As          1.67212e-06;
        Ts          170.672;
    }
    NC4H9CHO
    {
        As          1.67212e-06;
        Ts          170.672;
    }
    NC4H9CO
    {
        As          1.67212e-06;
        Ts          170.672;
    }
    NC3H7COCH2
    {
        As          1.67212e-06;
        Ts          170.672;
    }
    NC7H16
    {
        As          1.67212e-06;
        Ts          170.672;
    }
    C7H15-1
    {
        As          1.67212e-06;
        Ts          170.672;
    }
    C7H15-2
    {
        As          1.67212e-06;
        Ts          170.672;
    }
    C7H15-3
    {
        As          1.67212e-06;
        Ts          170.672;
    }
    C7H15-4
    {
        As          1.67212e-06;
        Ts          170.672;
    }
    C7H14-1
    {
        As          1.67212e-06;
        Ts          170.672;
    }
    C7H14-2
    {
        As          1.67212e-06;
        Ts          170.672;
    }
    C7H14-3
    {
        As          1.67212e-06;
        Ts          170.672;
    }
    C7H131-3
    {
        As          1.67212e-06;
        Ts          170.672;
    }
    C7H133-6
    {
        As          1.67212e-06;
        Ts          170.672;
    }
    C7H15O2-1
    {
        As          1.67212e-06;
        Ts          170.672;
    }
    C7H15O2-2
    {
        As          1.67212e-06;
        Ts          170.672;
    }
    C7H15O2-3
    {
        As          1.67212e-06;
        Ts          170.672;
    }
    C7H15O2-4
    {
        As          1.67212e-06;
        Ts          170.672;
    }
    C7H15O2H-3
    {
        As          1.67212e-06;
        Ts          170.672;
    }
    C7H15O-3
    {
        As          1.67212e-06;
        Ts          170.672;
    }
    C7H14OOH1-3
    {
        As          1.67212e-06;
        Ts          170.672;
    }
    C7H14OOH1-4
    {
        As          1.67212e-06;
        Ts          170.672;
    }
    C7H14OOH2-4
    {
        As          1.67212e-06;
        Ts          170.672;
    }
    C7H14OOH2-5
    {
        As          1.67212e-06;
        Ts          170.672;
    }
    C7H14OOH3-2
    {
        As          1.67212e-06;
        Ts          170.672;
    }
    C7H14OOH3-4
    {
        As          1.67212e-06;
        Ts          170.672;
    }
    C7H14OOH3-5
    {
        As          1.67212e-06;
        Ts          170.672;
    }
    C7H14OOH4-1
    {
        As          1.67212e-06;
        Ts          170.672;
    }
    C7H14OOH4-2
    {
        As          1.67212e-06;
        Ts          170.672;
    }
    C7H14OOH4-3
    {
        As          1.67212e-06;
        Ts          170.672;
    }
    C7H14OOH1-3O2
    {
        As          1.67212e-06;
        Ts          170.672;
    }
    C7H14OOH2-4O2
    {
        As          1.67212e-06;
        Ts          170.672;
    }
    C7H14OOH3-2O2
    {
        As          1.67212e-06;
        Ts          170.672;
    }
    C7H14OOH3-4O2
    {
        As          1.67212e-06;
        Ts          170.672;
    }
    C7H14OOH3-5O2
    {
        As          1.67212e-06;
        Ts          170.672;
    }
    C7H14OOH4-2O2
    {
        As          1.67212e-06;
        Ts          170.672;
    }
    C7H14OOH4-3O2
    {
        As          1.67212e-06;
        Ts          170.672;
    }
    C7H14O1-3
    {
        As          1.67212e-06;
        Ts          170.672;
    }
    C7H14O1-4
    {
        As          1.67212e-06;
        Ts          170.672;
    }
    C7H14O2-4
    {
        As          1.67212e-06;
        Ts          170.672;
    }
    C7H14O2-5
    {
        As          1.67212e-06;
        Ts          170.672;
    }
    C7H14O3-5
    {
        As          1.67212e-06;
        Ts          170.672;
    }
    NC7KET13
    {
        As          1.67212e-06;
        Ts          170.672;
    }
    NC7KET24
    {
        As          1.67212e-06;
        Ts          170.672;
    }
    NC7KET32
    {
        As          1.67212e-06;
        Ts          170.672;
    }
    NC7KET34
    {
        As          1.67212e-06;
        Ts          170.672;
    }
    NC7KET35
    {
        As          1.67212e-06;
        Ts          170.672;
    }
    NC7KET42
    {
        As          1.67212e-06;
        Ts          170.672;
    }
    NC7KET43
    {
        As          1.67212e-06;
        Ts          170.672;
    }
    C5H9OOH1-4
    {
        As          1.67212e-06;
        Ts          170.672;
    }
    C5H9O1-4
    {
        As          1.67212e-06;
        Ts          170.672;
    }
    BC5H11
    {
        As          1.67212e-06;
        Ts          170.672;
    }
    CC5H11
    {
        As          1.67212e-06;
        Ts          170.672;
    }
    AC5H10
    {
        As          1.67212e-06;
        Ts          170.672;
    }
    BC5H10
    {
        As          1.67212e-06;
        Ts          170.672;
    }
    CC5H10
    {
        As          1.67212e-06;
        Ts          170.672;
    }
    AC5H9-C
    {
        As          1.67212e-06;
        Ts          170.672;
    }
    CC5H9-B
    {
        As          1.67212e-06;
        Ts          170.672;
    }
    CH3CHCHO
    {
        As          1.67212e-06;
        Ts          170.672;
    }
    BC6H12
    {
        As          1.67212e-06;
        Ts          170.672;
    }
    CC6H12
    {
        As          1.67212e-06;
        Ts          170.672;
    }
    CC6H11-B
    {
        As          1.67212e-06;
        Ts          170.672;
    }
    IC4H7-I1
    {
        As          1.67212e-06;
        Ts          170.672;
    }
    YC7H15
    {
        As          1.67212e-06;
        Ts          170.672;
    }
    ZC7H15
    {
        As          1.67212e-06;
        Ts          170.672;
    }
    XC7H14
    {
        As          1.67212e-06;
        Ts          170.672;
    }
    YC7H14
    {
        As          1.67212e-06;
        Ts          170.672;
    }
    XC7H13-Z
    {
        As          1.67212e-06;
        Ts          170.672;
    }
    YC7H13-X2
    {
        As          1.67212e-06;
        Ts          170.672;
    }
    XC7H13O-Z
    {
        As          1.67212e-06;
        Ts          170.672;
    }
    ACC6H10
    {
        As          1.67212e-06;
        Ts          170.672;
    }
    ACC6H9-A
    {
        As          1.67212e-06;
        Ts          170.672;
    }
    ACC6H9-D
    {
        As          1.67212e-06;
        Ts          170.672;
    }
    NEOC5H11
    {
        As          1.67212e-06;
        Ts          170.672;
    }
    NEOC5H11O2
    {
        As          1.67212e-06;
        Ts          170.672;
    }
    NEOC5H10OOH
    {
        As          1.67212e-06;
        Ts          170.672;
    }
    NEOC5H10OOH-O2
    {
        As          1.67212e-06;
        Ts          170.672;
    }
    NEOC5H9Q2-N
    {
        As          1.67212e-06;
        Ts          170.672;
    }
    NEOC5KET
    {
        As          1.67212e-06;
        Ts          170.672;
    }
    NEOC5KETOX
    {
        As          1.67212e-06;
        Ts          170.672;
    }
    TC4H9CHO
    {
        As          1.67212e-06;
        Ts          170.672;
    }
    TC4H9CO
    {
        As          1.67212e-06;
        Ts          170.672;
    }
    C4H7CHO2-2
    {
        As          1.67212e-06;
        Ts          170.672;
    }
    C4H6CHO2-24
    {
        As          1.67212e-06;
        Ts          170.672;
    }
    PC7H15
    {
        As          1.67212e-06;
        Ts          170.672;
    }
    IC8H18
    {
        As          1.67212e-06;
        Ts          170.672;
    }
    AC8H17
    {
        As          1.67212e-06;
        Ts          170.672;
    }
    BC8H17
    {
        As          1.67212e-06;
        Ts          170.672;
    }
    CC8H17
    {
        As          1.67212e-06;
        Ts          170.672;
    }
    DC8H17
    {
        As          1.67212e-06;
        Ts          170.672;
    }
    IC8H16
    {
        As          1.67212e-06;
        Ts          170.672;
    }
    JC8H16
    {
        As          1.67212e-06;
        Ts          170.672;
    }
    IC8H15
    {
        As          1.67212e-06;
        Ts          170.672;
    }
    AC8H17O2
    {
        As          1.67212e-06;
        Ts          170.672;
    }
    BC8H17O2
    {
        As          1.67212e-06;
        Ts          170.672;
    }
    CC8H17O2
    {
        As          1.67212e-06;
        Ts          170.672;
    }
    DC8H17O2
    {
        As          1.67212e-06;
        Ts          170.672;
    }
    AC8H17O2H
    {
        As          1.67212e-06;
        Ts          170.672;
    }
    CC8H17O2H
    {
        As          1.67212e-06;
        Ts          170.672;
    }
    DC8H17O2H
    {
        As          1.67212e-06;
        Ts          170.672;
    }
    AC8H17O
    {
        As          1.67212e-06;
        Ts          170.672;
    }
    CC8H17O
    {
        As          1.67212e-06;
        Ts          170.672;
    }
    AC8H16OOH-A
    {
        As          1.67212e-06;
        Ts          170.672;
    }
    AC8H16OOH-B
    {
        As          1.67212e-06;
        Ts          170.672;
    }
    AC8H16OOH-C
    {
        As          1.67212e-06;
        Ts          170.672;
    }
    BC8H16OOH-C
    {
        As          1.67212e-06;
        Ts          170.672;
    }
    BC8H16OOH-A
    {
        As          1.67212e-06;
        Ts          170.672;
    }
    BC8H16OOH-D
    {
        As          1.67212e-06;
        Ts          170.672;
    }
    CC8H16OOH-B
    {
        As          1.67212e-06;
        Ts          170.672;
    }
    CC8H16OOH-A
    {
        As          1.67212e-06;
        Ts          170.672;
    }
    DC8H16OOH-C
    {
        As          1.67212e-06;
        Ts          170.672;
    }
    DC8H16OOH-B
    {
        As          1.67212e-06;
        Ts          170.672;
    }
    IC8ETERAA
    {
        As          1.67212e-06;
        Ts          170.672;
    }
    IC8ETERAB
    {
        As          1.67212e-06;
        Ts          170.672;
    }
    IC8ETERAC
    {
        As          1.67212e-06;
        Ts          170.672;
    }
    IC8ETERBD
    {
        As          1.67212e-06;
        Ts          170.672;
    }
    AC8H16OOH-BO2
    {
        As          1.67212e-06;
        Ts          170.672;
    }
    BC8H16OOH-CO2
    {
        As          1.67212e-06;
        Ts          170.672;
    }
    BC8H16OOH-AO2
    {
        As          1.67212e-06;
        Ts          170.672;
    }
    BC8H16OOH-DO2
    {
        As          1.67212e-06;
        Ts          170.672;
    }
    DC8H16OOH-BO2
    {
        As          1.67212e-06;
        Ts          170.672;
    }
    IC8KETAB
    {
        As          1.67212e-06;
        Ts          170.672;
    }
    IC8KETBA
    {
        As          1.67212e-06;
        Ts          170.672;
    }
    IC8KETBC
    {
        As          1.67212e-06;
        Ts          170.672;
    }
    IC8KETBD
    {
        As          1.67212e-06;
        Ts          170.672;
    }
    IC8KETDB
    {
        As          1.67212e-06;
        Ts          170.672;
    }
    IC3H7COC3H6-T
    {
        As          1.67212e-06;
        Ts          170.672;
    }
    TC4H9COC2H4S
    {
        As          1.67212e-06;
        Ts          170.672;
    }
    XC7H13OOH-Z
    {
        As          1.67212e-06;
        Ts          170.672;
    }
    YC7H13OOH-X2
    {
        As          1.67212e-06;
        Ts          170.672;
    }
    YC7H13O-X2
    {
        As          1.67212e-06;
        Ts          170.672;
    }
    C6H5CH3
    {
        As          1.67212e-06;
        Ts          170.672;
    }
    C6H5CH2J
    {
        As          1.67212e-06;
        Ts          170.672;
    }
    OC6H4CH3
    {
        As          1.67212e-06;
        Ts          170.672;
    }
    HOC6H4CH3
    {
        As          1.67212e-06;
        Ts          170.672;
    }
    OC6H4O
    {
        As          1.67212e-06;
        Ts          170.672;
    }
    RODC6JDO
    {
        As          1.67212e-06;
        Ts          170.672;
    }
    OXCCXCCJXO
    {
        As          1.67212e-06;
        Ts          170.672;
    }
    C6H5OH
    {
        As          1.67212e-06;
        Ts          170.672;
    }
    STYR
    {
        As          1.67212e-06;
        Ts          170.672;
    }
    CYPDONE
    {
        As          1.67212e-06;
        Ts          170.672;
    }
    HCOCJXO
    {
        As          1.67212e-06;
        Ts          170.672;
    }
    OXCCXCCXO
    {
        As          1.67212e-06;
        Ts          170.672;
    }
    C6H5CH2OJ
    {
        As          1.67212e-06;
        Ts          170.672;
    }
    C6H5CH2OH
    {
        As          1.67212e-06;
        Ts          170.672;
    }
    C6H5CHO
    {
        As          1.67212e-06;
        Ts          170.672;
    }
    C6H4OH
    {
        As          1.67212e-06;
        Ts          170.672;
    }
    C6H6
    {
        As          1.67212e-06;
        Ts          170.672;
    }
    C6H5OJ
    {
        As          1.67212e-06;
        Ts          170.672;
    }
    CJXCCXO
    {
        As          1.67212e-06;
        Ts          170.672;
    }
    C6H5
    {
        As          1.67212e-06;
        Ts          170.672;
    }
    C6H4CH3
    {
        As          1.67212e-06;
        Ts          170.672;
    }
    C6H5CJO
    {
        As          1.67212e-06;
        Ts          170.672;
    }
    O2C6H4CH3
    {
        As          1.67212e-06;
        Ts          170.672;
    }
    RODC6J(C)DO
    {
        As          1.67212e-06;
        Ts          170.672;
    }
    OCCXCCXCJC
    {
        As          1.67212e-06;
        Ts          170.672;
    }
}

