FoamFile
{
    version     2.0;
    format      ascii;
    class       dictionary;
    object      combustionProperties;
}

combustionModel      PaSR;
active               yes;

PaSRCoeffs
{
    Cmix            0.03;
}
