FoamFile
{
    format      ascii;
    class       volScalarField;
    location    "0";
    object      Ydefault;
}

dimensions      [0 0 0 0 0 0 0];

internalField   uniform {{handoff_species_Ydefault}};

boundaryField
{
    inlet
    {
        type            zeroGradient;
    }
    outlet
    {
        type            zeroGradient;
    }
    walls
    {
        type            zeroGradient;
    }
    cylinder
    {
        type            zeroGradient;
    }
    intakeValve
    {
        type            zeroGradient;
    }
    exhaustValveLeft
    {
        type            zeroGradient;
    }
    exhaustValveRight
    {
        type            zeroGradient;
    }
    "AMI_.*"
    {
        type            cyclicAMI;
    }
}
